/*---------------------------------------------------------------------------*\
| =========                 |                                                 |
| \\      /  F ield         | OpenFOAM: The Open Source CFD Toolbox           |
|  \\    /   O peration     | Version:                                        |
|   \\  /    A nd           | Website:  www.openfoam.com                      |
|    \\/     M anipulation  |                                                 |
\*---------------------------------------------------------------------------*/
Build  : OPENFOAM=1912 patch=200626
Arch   : "LSB;label=32;scalar=64"
Exec   : simpleFoam
Date   : Feb 07 2026
Time   : 22:40:32
Host   : Moltbot-Server
PID    : 10052
I/O    : uncollated
Case   : /home/vboxuser/.openclaw/workspace/projects/robotics/simulation/screw_v1
nProcs : 1
trapFpe: Floating point exception trapping enabled (FOAM_SIGFPE).
fileModificationChecking : Monitoring run-time modified files using timeStampMaster (fileModificationSkew 10)
allowSystemOperations : Allowing user-supplied system call operations

// * * * * * * * * * * * * * * * * * * * * * * * * * * * * * * * * * * * * * //
Create time

Create mesh for time = 0


SIMPLE: no convergence criteria found. Calculations will run for 1000 steps.

Reading field p

Reading field U

Reading/calculating face flux field phi

Selecting incompressible transport model Newtonian
Selecting turbulence model type RAS
Selecting RAS turbulence model kEpsilon
RAS
{
    RASModel        kEpsilon;
    turbulence      on;
    printCoeffs     on;
    Cmu             0.09;
    C1              1.44;
    C2              1.92;
    C3              0;
    sigmak          1;
    sigmaEps        1.3;
}

No MRF models present

No finite volume options present

Starting time loop

Time = 1

smoothSolver:  Solving for Ux, Initial residual = 1, Final residual = 0.0783872, No Iterations 2
smoothSolver:  Solving for Uy, Initial residual = 1, Final residual = 0.0786515, No Iterations 2
smoothSolver:  Solving for Uz, Initial residual = 1, Final residual = 0.0626174, No Iterations 2
GAMG:  Solving for p, Initial residual = 1, Final residual = 0.0612863, No Iterations 1
time step continuity errors : sum local = 0.00373354, global = 5.01673e-06, cumulative = 5.01673e-06
smoothSolver:  Solving for epsilon, Initial residual = 0.284079, Final residual = 0.000863722, No Iterations 1
smoothSolver:  Solving for k, Initial residual = 1, Final residual = 0.0095926, No Iterations 1
ExecutionTime = 2.28 s  ClockTime = 3 s

Time = 2

smoothSolver:  Solving for Ux, Initial residual = 0.385334, Final residual = 0.034784, No Iterations 2
smoothSolver:  Solving for Uy, Initial residual = 0.386722, Final residual = 0.0348507, No Iterations 2
smoothSolver:  Solving for Uz, Initial residual = 0.43101, Final residual = 0.0325015, No Iterations 2
GAMG:  Solving for p, Initial residual = 0.241567, Final residual = 0.0238342, No Iterations 1
time step continuity errors : sum local = 0.00217432, global = 1.73042e-05, cumulative = 2.2321e-05
smoothSolver:  Solving for epsilon, Initial residual = 0.122415, Final residual = 0.000317671, No Iterations 1
smoothSolver:  Solving for k, Initial residual = 0.291897, Final residual = 0.00291584, No Iterations 1
ExecutionTime = 2.59 s  ClockTime = 3 s

Time = 3

smoothSolver:  Solving for Ux, Initial residual = 0.17231, Final residual = 0.0154793, No Iterations 3
smoothSolver:  Solving for Uy, Initial residual = 0.17248, Final residual = 0.0155273, No Iterations 3
smoothSolver:  Solving for Uz, Initial residual = 0.242656, Final residual = 0.00977182, No Iterations 3
GAMG:  Solving for p, Initial residual = 0.0498851, Final residual = 0.00159183, No Iterations 2
time step continuity errors : sum local = 0.000440767, global = 5.09559e-05, cumulative = 7.32768e-05
smoothSolver:  Solving for epsilon, Initial residual = 0.0619245, Final residual = 0.000163408, No Iterations 1
smoothSolver:  Solving for k, Initial residual = 0.148794, Final residual = 0.00152114, No Iterations 1
ExecutionTime = 3.48 s  ClockTime = 4 s

Time = 4

smoothSolver:  Solving for Ux, Initial residual = 0.110665, Final residual = 0.00683294, No Iterations 4
smoothSolver:  Solving for Uy, Initial residual = 0.111163, Final residual = 0.00687036, No Iterations 4
smoothSolver:  Solving for Uz, Initial residual = 0.159433, Final residual = 0.00798429, No Iterations 3
GAMG:  Solving for p, Initial residual = 0.0123692, Final residual = 0.0003486, No Iterations 2
time step continuity errors : sum local = 0.000300617, global = 7.43505e-05, cumulative = 0.000147627
smoothSolver:  Solving for epsilon, Initial residual = 0.0343747, Final residual = 0.000104183, No Iterations 1
smoothSolver:  Solving for k, Initial residual = 0.0883977, Final residual = 0.000971399, No Iterations 1
ExecutionTime = 3.54 s  ClockTime = 4 s

Time = 5

smoothSolver:  Solving for Ux, Initial residual = 0.0883133, Final residual = 0.00578072, No Iterations 4
smoothSolver:  Solving for Uy, Initial residual = 0.0889584, Final residual = 0.0058371, No Iterations 4
smoothSolver:  Solving for Uz, Initial residual = 0.116457, Final residual = 0.00724004, No Iterations 3
GAMG:  Solving for p, Initial residual = 0.00546819, Final residual = 0.000188317, No Iterations 2
time step continuity errors : sum local = 0.000290791, global = 7.90943e-05, cumulative = 0.000226722
smoothSolver:  Solving for epsilon, Initial residual = 0.0203483, Final residual = 7.7719e-05, No Iterations 1
smoothSolver:  Solving for k, Initial residual = 0.0564765, Final residual = 0.000701719, No Iterations 1
ExecutionTime = 3.87 s  ClockTime = 4 s

Time = 6

smoothSolver:  Solving for Ux, Initial residual = 0.0743005, Final residual = 0.00494313, No Iterations 4
smoothSolver:  Solving for Uy, Initial residual = 0.0749509, Final residual = 0.00499816, No Iterations 4
smoothSolver:  Solving for Uz, Initial residual = 0.0901855, Final residual = 0.00668047, No Iterations 3
GAMG:  Solving for p, Initial residual = 0.0031436, Final residual = 0.000109114, No Iterations 2
time step continuity errors : sum local = 0.00025114, global = 6.49157e-05, cumulative = 0.000291637
smoothSolver:  Solving for epsilon, Initial residual = 0.012698, Final residual = 6.43384e-05, No Iterations 1
smoothSolver:  Solving for k, Initial residual = 0.0376802, Final residual = 0.000553154, No Iterations 1
ExecutionTime = 4.12 s  ClockTime = 4 s

Time = 7

smoothSolver:  Solving for Ux, Initial residual = 0.0630083, Final residual = 0.00429727, No Iterations 4
smoothSolver:  Solving for Uy, Initial residual = 0.0635597, Final residual = 0.00433943, No Iterations 4
smoothSolver:  Solving for Uz, Initial residual = 0.0717737, Final residual = 0.00615145, No Iterations 3
GAMG:  Solving for p, Initial residual = 0.00176754, Final residual = 6.60462e-05, No Iterations 2
time step continuity errors : sum local = 0.000242164, global = 5.2492e-05, cumulative = 0.000344129
smoothSolver:  Solving for epsilon, Initial residual = 0.00825521, Final residual = 5.69206e-05, No Iterations 1
smoothSolver:  Solving for k, Initial residual = 0.0258996, Final residual = 0.00046288, No Iterations 1
ExecutionTime = 4.37 s  ClockTime = 4 s

Time = 8

smoothSolver:  Solving for Ux, Initial residual = 0.0540442, Final residual = 0.00377917, No Iterations 4
smoothSolver:  Solving for Uy, Initial residual = 0.0545015, Final residual = 0.0038097, No Iterations 4
smoothSolver:  Solving for Uz, Initial residual = 0.0593433, Final residual = 0.00577702, No Iterations 3
GAMG:  Solving for p, Initial residual = 0.00112543, Final residual = 4.95661e-05, No Iterations 2
time step continuity errors : sum local = 0.000265312, global = 5.35483e-05, cumulative = 0.000397677
smoothSolver:  Solving for epsilon, Initial residual = 0.0055477, Final residual = 5.25464e-05, No Iterations 1
smoothSolver:  Solving for k, Initial residual = 0.0182285, Final residual = 0.000403876, No Iterations 1
ExecutionTime = 4.61 s  ClockTime = 4 s

Time = 9

smoothSolver:  Solving for Ux, Initial residual = 0.0473961, Final residual = 0.00336129, No Iterations 4
smoothSolver:  Solving for Uy, Initial residual = 0.0477612, Final residual = 0.00338138, No Iterations 4
smoothSolver:  Solving for Uz, Initial residual = 0.0515226, Final residual = 0.00274162, No Iterations 4
GAMG:  Solving for p, Initial residual = 0.00101941, Final residual = 5.05334e-05, No Iterations 2
time step continuity errors : sum local = 0.00029717, global = 5.44826e-05, cumulative = 0.00045216
smoothSolver:  Solving for epsilon, Initial residual = 0.00384393, Final residual = 4.97141e-05, No Iterations 1
smoothSolver:  Solving for k, Initial residual = 0.0131098, Final residual = 0.00036264, No Iterations 1
ExecutionTime = 4.88 s  ClockTime = 5 s

Time = 10

smoothSolver:  Solving for Ux, Initial residual = 0.0423368, Final residual = 0.00302339, No Iterations 4
smoothSolver:  Solving for Uy, Initial residual = 0.0426258, Final residual = 0.00303465, No Iterations 4
smoothSolver:  Solving for Uz, Initial residual = 0.0460275, Final residual = 0.00261589, No Iterations 4
GAMG:  Solving for p, Initial residual = 0.00113346, Final residual = 5.82548e-05, No Iterations 2
time step continuity errors : sum local = 0.000328699, global = 4.92594e-05, cumulative = 0.000501419
smoothSolver:  Solving for epsilon, Initial residual = 0.00274866, Final residual = 4.76272e-05, No Iterations 1
smoothSolver:  Solving for k, Initial residual = 0.00963134, Final residual = 0.000332052, No Iterations 1
ExecutionTime = 5.22 s  ClockTime = 5 s

Time = 11

smoothSolver:  Solving for Ux, Initial residual = 0.0383379, Final residual = 0.00274806, No Iterations 4
smoothSolver:  Solving for Uy, Initial residual = 0.0385884, Final residual = 0.00275153, No Iterations 4
smoothSolver:  Solving for Uz, Initial residual = 0.0425502, Final residual = 0.00252262, No Iterations 4
GAMG:  Solving for p, Initial residual = 0.00133742, Final residual = 6.8049e-05, No Iterations 2
time step continuity errors : sum local = 0.00037106, global = 4.83941e-05, cumulative = 0.000549814
smoothSolver:  Solving for epsilon, Initial residual = 0.00203291, Final residual = 4.58883e-05, No Iterations 1
smoothSolver:  Solving for k, Initial residual = 0.00723563, Final residual = 0.000307822, No Iterations 1
ExecutionTime = 5.49 s  ClockTime = 5 s

Time = 12

smoothSolver:  Solving for Ux, Initial residual = 0.0351406, Final residual = 0.0025209, No Iterations 4
smoothSolver:  Solving for Uy, Initial residual = 0.0353836, Final residual = 0.00251899, No Iterations 4
smoothSolver:  Solving for Uz, Initial residual = 0.0401976, Final residual = 0.00244505, No Iterations 4
GAMG:  Solving for p, Initial residual = 0.00148381, Final residual = 7.37897e-05, No Iterations 2
time step continuity errors : sum local = 0.000421889, global = 5.36544e-05, cumulative = 0.000603468
smoothSolver:  Solving for epsilon, Initial residual = 0.00155759, Final residual = 4.42876e-05, No Iterations 1
bounding epsilon, min: -0.0171405 max: 480.414 average: 0.308969
smoothSolver:  Solving for k, Initial residual = 0.00557007, Final residual = 0.000287845, No Iterations 1
ExecutionTime = 5.79 s  ClockTime = 5 s

Time = 13

smoothSolver:  Solving for Ux, Initial residual = 0.0325406, Final residual = 0.00232609, No Iterations 4
smoothSolver:  Solving for Uy, Initial residual = 0.0327922, Final residual = 0.00232186, No Iterations 4
smoothSolver:  Solving for Uz, Initial residual = 0.0383777, Final residual = 0.00237335, No Iterations 4
GAMG:  Solving for p, Initial residual = 0.00149487, Final residual = 7.51805e-05, No Iterations 2
time step continuity errors : sum local = 0.000482442, global = 6.36163e-05, cumulative = 0.000667084
smoothSolver:  Solving for epsilon, Initial residual = 0.00123614, Final residual = 4.27398e-05, No Iterations 1
smoothSolver:  Solving for k, Initial residual = 0.00440333, Final residual = 0.000271131, No Iterations 1
ExecutionTime = 6.12 s  ClockTime = 6 s

Time = 14

smoothSolver:  Solving for Ux, Initial residual = 0.0303988, Final residual = 0.0021556, No Iterations 4
smoothSolver:  Solving for Uy, Initial residual = 0.0306534, Final residual = 0.00215177, No Iterations 4
smoothSolver:  Solving for Uz, Initial residual = 0.0369153, Final residual = 0.00230919, No Iterations 4
GAMG:  Solving for p, Initial residual = 0.00146145, Final residual = 7.52517e-05, No Iterations 2
time step continuity errors : sum local = 0.000552221, global = 7.64623e-05, cumulative = 0.000743547
smoothSolver:  Solving for epsilon, Initial residual = 0.00101418, Final residual = 4.1235e-05, No Iterations 1
bounding epsilon, min: -0.00300934 max: 574.701 average: 0.336112
smoothSolver:  Solving for k, Initial residual = 0.00358063, Final residual = 0.000257246, No Iterations 1
ExecutionTime = 6.43 s  ClockTime = 7 s

Time = 15

smoothSolver:  Solving for Ux, Initial residual = 0.0286069, Final residual = 0.00200842, No Iterations 4
smoothSolver:  Solving for Uy, Initial residual = 0.0288611, Final residual = 0.00200601, No Iterations 4
smoothSolver:  Solving for Uz, Initial residual = 0.0357878, Final residual = 0.00225807, No Iterations 4
GAMG:  Solving for p, Initial residual = 0.00128719, Final residual = 6.54009e-05, No Iterations 2
time step continuity errors : sum local = 0.00061369, global = 8.83781e-05, cumulative = 0.000831925
smoothSolver:  Solving for epsilon, Initial residual = 0.000857174, Final residual = 3.97468e-05, No Iterations 1
smoothSolver:  Solving for k, Initial residual = 0.00299741, Final residual = 0.000245843, No Iterations 1
ExecutionTime = 6.72 s  ClockTime = 7 s

Time = 16

smoothSolver:  Solving for Ux, Initial residual = 0.0270996, Final residual = 0.00188356, No Iterations 4
smoothSolver:  Solving for Uy, Initial residual = 0.0273265, Final residual = 0.00188211, No Iterations 4
smoothSolver:  Solving for Uz, Initial residual = 0.034984, Final residual = 0.00222701, No Iterations 4
GAMG:  Solving for p, Initial residual = 0.00115463, Final residual = 5.56981e-05, No Iterations 2
time step continuity errors : sum local = 0.000662415, global = 9.51206e-05, cumulative = 0.000927045
smoothSolver:  Solving for epsilon, Initial residual = 0.000742976, Final residual = 3.82976e-05, No Iterations 1
smoothSolver:  Solving for k, Initial residual = 0.00258153, Final residual = 0.000236527, No Iterations 1
ExecutionTime = 7.02 s  ClockTime = 7 s

Time = 17

smoothSolver:  Solving for Ux, Initial residual = 0.0258251, Final residual = 0.00177886, No Iterations 4
smoothSolver:  Solving for Uy, Initial residual = 0.0260241, Final residual = 0.00177624, No Iterations 4
smoothSolver:  Solving for Uz, Initial residual = 0.0345018, Final residual = 0.00221614, No Iterations 4
GAMG:  Solving for p, Initial residual = 0.00106604, Final residual = 4.89814e-05, No Iterations 2
time step continuity errors : sum local = 0.000707968, global = 9.54912e-05, cumulative = 0.00102254
smoothSolver:  Solving for epsilon, Initial residual = 0.000657596, Final residual = 3.69113e-05, No Iterations 1
bounding epsilon, min: -0.0557444 max: 674.244 average: 0.372998
smoothSolver:  Solving for k, Initial residual = 0.00228213, Final residual = 2.75793e-05, No Iterations 2
ExecutionTime = 7.35 s  ClockTime = 8 s

Time = 18

smoothSolver:  Solving for Ux, Initial residual = 0.0247343, Final residual = 0.00169162, No Iterations 4
smoothSolver:  Solving for Uy, Initial residual = 0.0248956, Final residual = 0.00168454, No Iterations 4
smoothSolver:  Solving for Uz, Initial residual = 0.0346748, Final residual = 0.0022329, No Iterations 4
GAMG:  Solving for p, Initial residual = 0.00109495, Final residual = 4.76871e-05, No Iterations 2
time step continuity errors : sum local = 0.000749397, global = 9.43384e-05, cumulative = 0.00111687
smoothSolver:  Solving for epsilon, Initial residual = 0.000601097, Final residual = 3.61104e-05, No Iterations 1
bounding epsilon, min: -0.00852861 max: 698.693 average: 0.385292
smoothSolver:  Solving for k, Initial residual = 0.00205666, Final residual = 2.69719e-05, No Iterations 2
ExecutionTime = 7.76 s  ClockTime = 8 s

Time = 19

smoothSolver:  Solving for Ux, Initial residual = 0.0237602, Final residual = 0.00161762, No Iterations 4
smoothSolver:  Solving for Uy, Initial residual = 0.0239357, Final residual = 0.00160601, No Iterations 4
smoothSolver:  Solving for Uz, Initial residual = 0.0344984, Final residual = 0.00223641, No Iterations 4
GAMG:  Solving for p, Initial residual = 0.00117229, Final residual = 4.88356e-05, No Iterations 2
time step continuity errors : sum local = 0.000786961, global = 9.03952e-05, cumulative = 0.00120727
smoothSolver:  Solving for epsilon, Initial residual = 0.000554932, Final residual = 3.52667e-05, No Iterations 1
bounding epsilon, min: -0.0131585 max: 719.33 average: 0.397073
smoothSolver:  Solving for k, Initial residual = 0.00188967, Final residual = 2.64082e-05, No Iterations 2
ExecutionTime = 8.06 s  ClockTime = 8 s

Time = 20

smoothSolver:  Solving for Ux, Initial residual = 0.0228665, Final residual = 0.00155013, No Iterations 4
smoothSolver:  Solving for Uy, Initial residual = 0.0230183, Final residual = 0.0015357, No Iterations 4
smoothSolver:  Solving for Uz, Initial residual = 0.0341884, Final residual = 0.00224981, No Iterations 4
GAMG:  Solving for p, Initial residual = 0.00125956, Final residual = 5.09445e-05, No Iterations 2
time step continuity errors : sum local = 0.000822107, global = 8.39706e-05, cumulative = 0.00129124
smoothSolver:  Solving for epsilon, Initial residual = 0.000513982, Final residual = 3.42979e-05, No Iterations 1
smoothSolver:  Solving for k, Initial residual = 0.00175743, Final residual = 2.58588e-05, No Iterations 2
ExecutionTime = 8.36 s  ClockTime = 9 s

Time = 21

smoothSolver:  Solving for Ux, Initial residual = 0.0220665, Final residual = 0.00148465, No Iterations 4
smoothSolver:  Solving for Uy, Initial residual = 0.0222232, Final residual = 0.00147323, No Iterations 4
smoothSolver:  Solving for Uz, Initial residual = 0.0340603, Final residual = 0.00226072, No Iterations 4
GAMG:  Solving for p, Initial residual = 0.0014562, Final residual = 5.77218e-05, No Iterations 2
time step continuity errors : sum local = 0.000851372, global = 7.26906e-05, cumulative = 0.00136393
smoothSolver:  Solving for epsilon, Initial residual = 0.000480227, Final residual = 3.34355e-05, No Iterations 1
bounding epsilon, min: -0.000568411 max: 751.129 average: 0.419128
smoothSolver:  Solving for k, Initial residual = 0.00165484, Final residual = 2.53362e-05, No Iterations 2
ExecutionTime = 9.42 s  ClockTime = 10 s

Time = 22

smoothSolver:  Solving for Ux, Initial residual = 0.0213464, Final residual = 0.00142103, No Iterations 4
smoothSolver:  Solving for Uy, Initial residual = 0.0215095, Final residual = 0.00141423, No Iterations 4
smoothSolver:  Solving for Uz, Initial residual = 0.0339295, Final residual = 0.00226434, No Iterations 4
GAMG:  Solving for p, Initial residual = 0.00157059, Final residual = 6.1446e-05, No Iterations 2
time step continuity errors : sum local = 0.000871421, global = 6.38157e-05, cumulative = 0.00142775
smoothSolver:  Solving for epsilon, Initial residual = 0.000451351, Final residual = 3.26068e-05, No Iterations 1
smoothSolver:  Solving for k, Initial residual = 0.00157193, Final residual = 2.48284e-05, No Iterations 2
ExecutionTime = 10.57 s  ClockTime = 10 s

Time = 23

smoothSolver:  Solving for Ux, Initial residual = 0.020695, Final residual = 0.00135651, No Iterations 4
smoothSolver:  Solving for Uy, Initial residual = 0.0208331, Final residual = 0.00135532, No Iterations 4
smoothSolver:  Solving for Uz, Initial residual = 0.0336865, Final residual = 0.00225438, No Iterations 4
GAMG:  Solving for p, Initial residual = 0.00177152, Final residual = 6.81674e-05, No Iterations 2
time step continuity errors : sum local = 0.000879836, global = 5.84237e-05, cumulative = 0.00148617
smoothSolver:  Solving for epsilon, Initial residual = 0.000426305, Final residual = 3.18007e-05, No Iterations 1
bounding epsilon, min: -0.0441637 max: 786.985 average: 0.439184
smoothSolver:  Solving for k, Initial residual = 0.00150361, Final residual = 2.43272e-05, No Iterations 2
ExecutionTime = 11.03 s  ClockTime = 11 s

Time = 24

smoothSolver:  Solving for Ux, Initial residual = 0.0200815, Final residual = 0.00129686, No Iterations 4
smoothSolver:  Solving for Uy, Initial residual = 0.0201837, Final residual = 0.00129525, No Iterations 4
smoothSolver:  Solving for Uz, Initial residual = 0.0333253, Final residual = 0.00223474, No Iterations 4
GAMG:  Solving for p, Initial residual = 0.00189999, Final residual = 7.1597e-05, No Iterations 2
time step continuity errors : sum local = 0.000878477, global = 5.98898e-05, cumulative = 0.00154606
smoothSolver:  Solving for epsilon, Initial residual = 0.000404314, Final residual = 3.09905e-05, No Iterations 1
bounding epsilon, min: -0.02119 max: 802.482 average: 0.448474
smoothSolver:  Solving for k, Initial residual = 0.0014453, Final residual = 2.38214e-05, No Iterations 2
ExecutionTime = 11.45 s  ClockTime = 12 s

Time = 25

smoothSolver:  Solving for Ux, Initial residual = 0.0194344, Final residual = 0.00124234, No Iterations 4
smoothSolver:  Solving for Uy, Initial residual = 0.0195593, Final residual = 0.00123681, No Iterations 4
smoothSolver:  Solving for Uz, Initial residual = 0.0328238, Final residual = 0.00220225, No Iterations 4
GAMG:  Solving for p, Initial residual = 0.00202438, Final residual = 7.45323e-05, No Iterations 2
time step continuity errors : sum local = 0.000871636, global = 6.41918e-05, cumulative = 0.00161025
smoothSolver:  Solving for epsilon, Initial residual = 0.000384088, Final residual = 3.01563e-05, No Iterations 1
smoothSolver:  Solving for k, Initial residual = 0.0013943, Final residual = 2.33121e-05, No Iterations 2
ExecutionTime = 11.74 s  ClockTime = 12 s

Time = 26

smoothSolver:  Solving for Ux, Initial residual = 0.0187862, Final residual = 0.00118927, No Iterations 4
smoothSolver:  Solving for Uy, Initial residual = 0.0189171, Final residual = 0.00118265, No Iterations 4
smoothSolver:  Solving for Uz, Initial residual = 0.0321631, Final residual = 0.00215957, No Iterations 4
GAMG:  Solving for p, Initial residual = 0.00216444, Final residual = 7.64365e-05, No Iterations 2
time step continuity errors : sum local = 0.000850891, global = 6.74903e-05, cumulative = 0.00167774
smoothSolver:  Solving for epsilon, Initial residual = 0.00036547, Final residual = 2.92693e-05, No Iterations 1
smoothSolver:  Solving for k, Initial residual = 0.00134918, Final residual = 2.27903e-05, No Iterations 2
ExecutionTime = 11.97 s  ClockTime = 12 s

Time = 27

smoothSolver:  Solving for Ux, Initial residual = 0.0181896, Final residual = 0.00114148, No Iterations 4
smoothSolver:  Solving for Uy, Initial residual = 0.0182909, Final residual = 0.00113422, No Iterations 4
smoothSolver:  Solving for Uz, Initial residual = 0.03142, Final residual = 0.00210877, No Iterations 4
GAMG:  Solving for p, Initial residual = 0.00231401, Final residual = 7.64724e-05, No Iterations 2
time step continuity errors : sum local = 0.000817433, global = 6.87451e-05, cumulative = 0.00174649
smoothSolver:  Solving for epsilon, Initial residual = 0.000348242, Final residual = 2.83232e-05, No Iterations 1
smoothSolver:  Solving for k, Initial residual = 0.00130796, Final residual = 2.22454e-05, No Iterations 2
ExecutionTime = 12.22 s  ClockTime = 12 s

Time = 28

smoothSolver:  Solving for Ux, Initial residual = 0.0176878, Final residual = 0.00109888, No Iterations 4
smoothSolver:  Solving for Uy, Initial residual = 0.0177447, Final residual = 0.00109286, No Iterations 4
smoothSolver:  Solving for Uz, Initial residual = 0.0305669, Final residual = 0.0020519, No Iterations 4
GAMG:  Solving for p, Initial residual = 0.00245059, Final residual = 7.5374e-05, No Iterations 2
time step continuity errors : sum local = 0.000771355, global = 6.96771e-05, cumulative = 0.00181616
smoothSolver:  Solving for epsilon, Initial residual = 0.000332364, Final residual = 2.73252e-05, No Iterations 1
smoothSolver:  Solving for k, Initial residual = 0.00126955, Final residual = 2.16728e-05, No Iterations 2
ExecutionTime = 12.46 s  ClockTime = 12 s

Time = 29

smoothSolver:  Solving for Ux, Initial residual = 0.0172318, Final residual = 0.00105961, No Iterations 4
smoothSolver:  Solving for Uy, Initial residual = 0.0172603, Final residual = 0.00105336, No Iterations 4
smoothSolver:  Solving for Uz, Initial residual = 0.0297241, Final residual = 0.00199788, No Iterations 4
GAMG:  Solving for p, Initial residual = 0.00259361, Final residual = 7.55241e-05, No Iterations 2
time step continuity errors : sum local = 0.000731306, global = 7.14644e-05, cumulative = 0.00188763
smoothSolver:  Solving for epsilon, Initial residual = 0.000317662, Final residual = 2.62903e-05, No Iterations 1
smoothSolver:  Solving for k, Initial residual = 0.00123337, Final residual = 2.10876e-05, No Iterations 2
ExecutionTime = 12.69 s  ClockTime = 13 s

Time = 30

smoothSolver:  Solving for Ux, Initial residual = 0.0168095, Final residual = 0.00102798, No Iterations 4
smoothSolver:  Solving for Uy, Initial residual = 0.0168257, Final residual = 0.00101732, No Iterations 4
smoothSolver:  Solving for Uz, Initial residual = 0.028946, Final residual = 0.0019509, No Iterations 4
GAMG:  Solving for p, Initial residual = 0.00265692, Final residual = 7.58411e-05, No Iterations 2
time step continuity errors : sum local = 0.000712393, global = 7.61202e-05, cumulative = 0.00196375
smoothSolver:  Solving for epsilon, Initial residual = 0.000304217, Final residual = 2.52587e-05, No Iterations 1
bounding epsilon, min: -0.00949575 max: 858.214 average: 0.494177
smoothSolver:  Solving for k, Initial residual = 0.00120019, Final residual = 2.05069e-05, No Iterations 2
ExecutionTime = 12.93 s  ClockTime = 13 s

Time = 31

smoothSolver:  Solving for Ux, Initial residual = 0.0164448, Final residual = 0.00100126, No Iterations 4
smoothSolver:  Solving for Uy, Initial residual = 0.0164252, Final residual = 0.000987424, No Iterations 4
smoothSolver:  Solving for Uz, Initial residual = 0.0282818, Final residual = 0.00191376, No Iterations 4
GAMG:  Solving for p, Initial residual = 0.00279001, Final residual = 8.15223e-05, No Iterations 2
time step continuity errors : sum local = 0.0007273, global = 7.85116e-05, cumulative = 0.00204226
smoothSolver:  Solving for epsilon, Initial residual = 0.000292692, Final residual = 2.4244e-05, No Iterations 1
smoothSolver:  Solving for k, Initial residual = 0.00116807, Final residual = 1.99354e-05, No Iterations 2
ExecutionTime = 13.17 s  ClockTime = 13 s

Time = 32

smoothSolver:  Solving for Ux, Initial residual = 0.0160957, Final residual = 0.000977145, No Iterations 4
smoothSolver:  Solving for Uy, Initial residual = 0.0160615, Final residual = 0.000963198, No Iterations 4
smoothSolver:  Solving for Uz, Initial residual = 0.0277307, Final residual = 0.00188441, No Iterations 4
GAMG:  Solving for p, Initial residual = 0.00281368, Final residual = 8.68425e-05, No Iterations 2
time step continuity errors : sum local = 0.000768551, global = 7.91257e-05, cumulative = 0.00212139
smoothSolver:  Solving for epsilon, Initial residual = 0.000281247, Final residual = 2.32816e-05, No Iterations 1
smoothSolver:  Solving for k, Initial residual = 0.00113722, Final residual = 1.93739e-05, No Iterations 2
ExecutionTime = 13.42 s  ClockTime = 14 s

Time = 33

smoothSolver:  Solving for Ux, Initial residual = 0.0158148, Final residual = 0.000958704, No Iterations 4
smoothSolver:  Solving for Uy, Initial residual = 0.0157735, Final residual = 0.000942263, No Iterations 4
smoothSolver:  Solving for Uz, Initial residual = 0.0273648, Final residual = 0.00186032, No Iterations 4
GAMG:  Solving for p, Initial residual = 0.00300245, Final residual = 9.78549e-05, No Iterations 2
time step continuity errors : sum local = 0.000812003, global = 7.28539e-05, cumulative = 0.00219424
smoothSolver:  Solving for epsilon, Initial residual = 0.000271273, Final residual = 2.24104e-05, No Iterations 1
bounding epsilon, min: -0.000250349 max: 870.696 average: 0.51095
smoothSolver:  Solving for k, Initial residual = 0.00110744, Final residual = 1.88211e-05, No Iterations 2
ExecutionTime = 13.66 s  ClockTime = 14 s

Time = 34

smoothSolver:  Solving for Ux, Initial residual = 0.0156026, Final residual = 0.000952739, No Iterations 4
smoothSolver:  Solving for Uy, Initial residual = 0.0155575, Final residual = 0.000927467, No Iterations 4
smoothSolver:  Solving for Uz, Initial residual = 0.0270575, Final residual = 0.00183847, No Iterations 4
GAMG:  Solving for p, Initial residual = 0.00316985, Final residual = 0.000108756, No Iterations 2
time step continuity errors : sum local = 0.00084621, global = 6.46715e-05, cumulative = 0.00225891
smoothSolver:  Solving for epsilon, Initial residual = 0.000262381, Final residual = 2.16326e-05, No Iterations 1
smoothSolver:  Solving for k, Initial residual = 0.00107938, Final residual = 1.8285e-05, No Iterations 2
ExecutionTime = 13.89 s  ClockTime = 14 s

Time = 35

smoothSolver:  Solving for Ux, Initial residual = 0.0154513, Final residual = 0.00095312, No Iterations 4
smoothSolver:  Solving for Uy, Initial residual = 0.0154176, Final residual = 0.00091877, No Iterations 4
smoothSolver:  Solving for Uz, Initial residual = 0.0267005, Final residual = 0.0018144, No Iterations 4
GAMG:  Solving for p, Initial residual = 0.00319417, Final residual = 0.00011211, No Iterations 2
time step continuity errors : sum local = 0.000851005, global = 5.86339e-05, cumulative = 0.00231755
smoothSolver:  Solving for epsilon, Initial residual = 0.000254652, Final residual = 2.09684e-05, No Iterations 1
smoothSolver:  Solving for k, Initial residual = 0.00105421, Final residual = 1.77944e-05, No Iterations 2
ExecutionTime = 14.14 s  ClockTime = 14 s

Time = 36

smoothSolver:  Solving for Ux, Initial residual = 0.0153173, Final residual = 0.000947157, No Iterations 4
smoothSolver:  Solving for Uy, Initial residual = 0.0153239, Final residual = 0.000910508, No Iterations 4
smoothSolver:  Solving for Uz, Initial residual = 0.0262795, Final residual = 0.00177989, No Iterations 4
GAMG:  Solving for p, Initial residual = 0.00326834, Final residual = 0.000112891, No Iterations 2
time step continuity errors : sum local = 0.0008228, global = 5.18952e-05, cumulative = 0.00236944
smoothSolver:  Solving for epsilon, Initial residual = 0.000248755, Final residual = 2.04265e-05, No Iterations 1
bounding epsilon, min: -0.00517003 max: 877.085 average: 0.524101
smoothSolver:  Solving for k, Initial residual = 0.00103297, Final residual = 1.73612e-05, No Iterations 2
ExecutionTime = 14.69 s  ClockTime = 15 s

Time = 37

smoothSolver:  Solving for Ux, Initial residual = 0.0150881, Final residual = 0.000933372, No Iterations 4
smoothSolver:  Solving for Uy, Initial residual = 0.0151555, Final residual = 0.000901916, No Iterations 4
smoothSolver:  Solving for Uz, Initial residual = 0.0256704, Final residual = 0.00172512, No Iterations 4
GAMG:  Solving for p, Initial residual = 0.00342038, Final residual = 0.000111845, No Iterations 2
time step continuity errors : sum local = 0.000773439, global = 4.3319e-05, cumulative = 0.00241276
smoothSolver:  Solving for epsilon, Initial residual = 0.000244129, Final residual = 1.9975e-05, No Iterations 1
smoothSolver:  Solving for k, Initial residual = 0.00101441, Final residual = 1.69856e-05, No Iterations 2
ExecutionTime = 15.03 s  ClockTime = 15 s

Time = 38

smoothSolver:  Solving for Ux, Initial residual = 0.014776, Final residual = 0.000911425, No Iterations 4
smoothSolver:  Solving for Uy, Initial residual = 0.014906, Final residual = 0.00088947, No Iterations 4
smoothSolver:  Solving for Uz, Initial residual = 0.0248826, Final residual = 0.00164807, No Iterations 4
GAMG:  Solving for p, Initial residual = 0.00353042, Final residual = 0.000107208, No Iterations 2
time step continuity errors : sum local = 0.000710177, global = 3.45242e-05, cumulative = 0.00244728
smoothSolver:  Solving for epsilon, Initial residual = 0.000241599, Final residual = 1.96733e-05, No Iterations 1
bounding epsilon, min: -0.00221206 max: 879.456 average: 0.531089
smoothSolver:  Solving for k, Initial residual = 0.000999827, Final residual = 1.66667e-05, No Iterations 2
ExecutionTime = 15.3 s  ClockTime = 15 s

Time = 39

smoothSolver:  Solving for Ux, Initial residual = 0.0143981, Final residual = 0.000885946, No Iterations 4
smoothSolver:  Solving for Uy, Initial residual = 0.014591, Final residual = 0.000871903, No Iterations 4
smoothSolver:  Solving for Uz, Initial residual = 0.023984, Final residual = 0.00156709, No Iterations 4
GAMG:  Solving for p, Initial residual = 0.00360028, Final residual = 0.000101207, No Iterations 2
time step continuity errors : sum local = 0.000650787, global = 2.62353e-05, cumulative = 0.00247352
smoothSolver:  Solving for epsilon, Initial residual = 0.00024225, Final residual = 1.95009e-05, No Iterations 1
smoothSolver:  Solving for k, Initial residual = 0.000988262, Final residual = 1.6411e-05, No Iterations 2
ExecutionTime = 15.51 s  ClockTime = 16 s

Time = 40

smoothSolver:  Solving for Ux, Initial residual = 0.0139678, Final residual = 0.000858292, No Iterations 4
smoothSolver:  Solving for Uy, Initial residual = 0.0142064, Final residual = 0.000849972, No Iterations 4
smoothSolver:  Solving for Uz, Initial residual = 0.0229533, Final residual = 0.00148906, No Iterations 4
GAMG:  Solving for p, Initial residual = 0.00367563, Final residual = 9.82356e-05, No Iterations 2
time step continuity errors : sum local = 0.000607729, global = 1.85021e-05, cumulative = 0.00249202
smoothSolver:  Solving for epsilon, Initial residual = 0.000242315, Final residual = 1.94253e-05, No Iterations 1
bounding epsilon, min: -0.00579999 max: 880.738 average: 0.536841
smoothSolver:  Solving for k, Initial residual = 0.000979728, Final residual = 1.62078e-05, No Iterations 2
ExecutionTime = 15.81 s  ClockTime = 16 s

Time = 41

smoothSolver:  Solving for Ux, Initial residual = 0.0134807, Final residual = 0.000826635, No Iterations 4
smoothSolver:  Solving for Uy, Initial residual = 0.0137538, Final residual = 0.000824294, No Iterations 4
smoothSolver:  Solving for Uz, Initial residual = 0.021882, Final residual = 0.00140867, No Iterations 4
GAMG:  Solving for p, Initial residual = 0.00374681, Final residual = 9.93485e-05, No Iterations 2
time step continuity errors : sum local = 0.000584705, global = 1.1962e-05, cumulative = 0.00250398
smoothSolver:  Solving for epsilon, Initial residual = 0.000243295, Final residual = 1.9441e-05, No Iterations 1
bounding epsilon, min: -0.000212337 max: 881.041 average: 0.539299
smoothSolver:  Solving for k, Initial residual = 0.00097301, Final residual = 1.60489e-05, No Iterations 2
ExecutionTime = 16.18 s  ClockTime = 16 s

Time = 42

smoothSolver:  Solving for Ux, Initial residual = 0.0129264, Final residual = 0.000792479, No Iterations 4
smoothSolver:  Solving for Uy, Initial residual = 0.0132303, Final residual = 0.00079576, No Iterations 4
smoothSolver:  Solving for Uz, Initial residual = 0.020814, Final residual = 0.00132955, No Iterations 4
GAMG:  Solving for p, Initial residual = 0.00371733, Final residual = 9.90813e-05, No Iterations 2
time step continuity errors : sum local = 0.000568902, global = 7.19934e-06, cumulative = 0.00251118
smoothSolver:  Solving for epsilon, Initial residual = 0.000245321, Final residual = 1.95363e-05, No Iterations 1
smoothSolver:  Solving for k, Initial residual = 0.000968307, Final residual = 1.59151e-05, No Iterations 2
ExecutionTime = 16.43 s  ClockTime = 16 s

Time = 43

smoothSolver:  Solving for Ux, Initial residual = 0.0123217, Final residual = 0.000757456, No Iterations 4
smoothSolver:  Solving for Uy, Initial residual = 0.012667, Final residual = 0.000766581, No Iterations 4
smoothSolver:  Solving for Uz, Initial residual = 0.0197725, Final residual = 0.00126126, No Iterations 4
GAMG:  Solving for p, Initial residual = 0.00371402, Final residual = 9.93003e-05, No Iterations 2
time step continuity errors : sum local = 0.000551786, global = 3.15346e-06, cumulative = 0.00251434
smoothSolver:  Solving for epsilon, Initial residual = 0.00024766, Final residual = 1.97019e-05, No Iterations 1
smoothSolver:  Solving for k, Initial residual = 0.000964218, Final residual = 1.57943e-05, No Iterations 2
ExecutionTime = 16.64 s  ClockTime = 17 s

Time = 44

smoothSolver:  Solving for Ux, Initial residual = 0.0117194, Final residual = 0.000722388, No Iterations 4
smoothSolver:  Solving for Uy, Initial residual = 0.0120874, Final residual = 0.000736725, No Iterations 4
smoothSolver:  Solving for Uz, Initial residual = 0.0188432, Final residual = 0.00121085, No Iterations 4
GAMG:  Solving for p, Initial residual = 0.00374433, Final residual = 0.000101194, No Iterations 2
time step continuity errors : sum local = 0.000541305, global = 3.81776e-07, cumulative = 0.00251472
smoothSolver:  Solving for epsilon, Initial residual = 0.000250106, Final residual = 1.99243e-05, No Iterations 1
bounding epsilon, min: -0.00442445 max: 880.86 average: 0.5452
smoothSolver:  Solving for k, Initial residual = 0.000960297, Final residual = 1.56888e-05, No Iterations 2
ExecutionTime = 16.87 s  ClockTime = 17 s

Time = 45

smoothSolver:  Solving for Ux, Initial residual = 0.0111465, Final residual = 0.000689644, No Iterations 4
smoothSolver:  Solving for Uy, Initial residual = 0.0115096, Final residual = 0.000707291, No Iterations 4
smoothSolver:  Solving for Uz, Initial residual = 0.0179696, Final residual = 0.00117145, No Iterations 4
GAMG:  Solving for p, Initial residual = 0.0037648, Final residual = 0.000104065, No Iterations 2
time step continuity errors : sum local = 0.00053681, global = -2.3292e-06, cumulative = 0.00251239
smoothSolver:  Solving for epsilon, Initial residual = 0.000252617, Final residual = 2.0178e-05, No Iterations 1
bounding epsilon, min: -0.000614384 max: 880.501 average: 0.546731
smoothSolver:  Solving for k, Initial residual = 0.000956382, Final residual = 1.5589e-05, No Iterations 2
ExecutionTime = 17.09 s  ClockTime = 17 s

Time = 46

smoothSolver:  Solving for Ux, Initial residual = 0.0105974, Final residual = 0.000660234, No Iterations 4
smoothSolver:  Solving for Uy, Initial residual = 0.0109423, Final residual = 0.000680806, No Iterations 4
smoothSolver:  Solving for Uz, Initial residual = 0.0171337, Final residual = 0.00113702, No Iterations 4
GAMG:  Solving for p, Initial residual = 0.00369095, Final residual = 0.000106916, No Iterations 2
time step continuity errors : sum local = 0.000540554, global = -6.12513e-06, cumulative = 0.00250626
smoothSolver:  Solving for epsilon, Initial residual = 0.000255211, Final residual = 2.04703e-05, No Iterations 1
smoothSolver:  Solving for k, Initial residual = 0.000951509, Final residual = 1.54947e-05, No Iterations 2
ExecutionTime = 17.33 s  ClockTime = 18 s

Time = 47

smoothSolver:  Solving for Ux, Initial residual = 0.0100898, Final residual = 0.000638202, No Iterations 4
smoothSolver:  Solving for Uy, Initial residual = 0.0104114, Final residual = 0.000658847, No Iterations 4
smoothSolver:  Solving for Uz, Initial residual = 0.0163133, Final residual = 0.00110093, No Iterations 4
GAMG:  Solving for p, Initial residual = 0.00362019, Final residual = 0.000111866, No Iterations 2
time step continuity errors : sum local = 0.00054913, global = -1.18227e-05, cumulative = 0.00249444
smoothSolver:  Solving for epsilon, Initial residual = 0.000257413, Final residual = 2.07505e-05, No Iterations 1
bounding epsilon, min: -0.00674883 max: 879.438 average: 0.549226
smoothSolver:  Solving for k, Initial residual = 0.000946363, Final residual = 1.53987e-05, No Iterations 2
ExecutionTime = 17.56 s  ClockTime = 18 s

Time = 48

smoothSolver:  Solving for Ux, Initial residual = 0.00963785, Final residual = 0.000621096, No Iterations 4
smoothSolver:  Solving for Uy, Initial residual = 0.0099213, Final residual = 0.000637166, No Iterations 4
smoothSolver:  Solving for Uz, Initial residual = 0.0154929, Final residual = 0.00106164, No Iterations 4
GAMG:  Solving for p, Initial residual = 0.00352737, Final residual = 0.000117268, No Iterations 2
time step continuity errors : sum local = 0.000561057, global = -1.90095e-05, cumulative = 0.00247543
smoothSolver:  Solving for epsilon, Initial residual = 0.000261329, Final residual = 2.09817e-05, No Iterations 1
bounding epsilon, min: -0.000735706 max: 878.763 average: 0.55022
smoothSolver:  Solving for k, Initial residual = 0.000939762, Final residual = 1.52836e-05, No Iterations 2
ExecutionTime = 17.78 s  ClockTime = 18 s

Time = 49

smoothSolver:  Solving for Ux, Initial residual = 0.0092246, Final residual = 0.000605516, No Iterations 4
smoothSolver:  Solving for Uy, Initial residual = 0.00947616, Final residual = 0.0006157, No Iterations 4
smoothSolver:  Solving for Uz, Initial residual = 0.014699, Final residual = 0.0010204, No Iterations 4
GAMG:  Solving for p, Initial residual = 0.00338427, Final residual = 0.000121328, No Iterations 2
time step continuity errors : sum local = 0.000572596, global = -2.70159e-05, cumulative = 0.00244842
smoothSolver:  Solving for epsilon, Initial residual = 0.000261848, Final residual = 2.11287e-05, No Iterations 1
bounding epsilon, min: -0.000766449 max: 878.011 average: 0.55106
smoothSolver:  Solving for k, Initial residual = 0.00093128, Final residual = 1.51485e-05, No Iterations 2
ExecutionTime = 18.01 s  ClockTime = 18 s

Time = 50

smoothSolver:  Solving for Ux, Initial residual = 0.00883862, Final residual = 0.000589003, No Iterations 4
smoothSolver:  Solving for Uy, Initial residual = 0.00907532, Final residual = 0.000595287, No Iterations 4
smoothSolver:  Solving for Uz, Initial residual = 0.0139556, Final residual = 0.000978495, No Iterations 4
GAMG:  Solving for p, Initial residual = 0.00327476, Final residual = 0.000125128, No Iterations 2
time step continuity errors : sum local = 0.000578729, global = -3.45682e-05, cumulative = 0.00241385
smoothSolver:  Solving for epsilon, Initial residual = 0.000261446, Final residual = 2.11774e-05, No Iterations 1
smoothSolver:  Solving for k, Initial residual = 0.000920828, Final residual = 1.49852e-05, No Iterations 2
ExecutionTime = 18.23 s  ClockTime = 18 s

Time = 51

smoothSolver:  Solving for Ux, Initial residual = 0.00847121, Final residual = 0.000570906, No Iterations 4
smoothSolver:  Solving for Uy, Initial residual = 0.00870544, Final residual = 0.00057464, No Iterations 4
smoothSolver:  Solving for Uz, Initial residual = 0.0132805, Final residual = 0.000938241, No Iterations 4
GAMG:  Solving for p, Initial residual = 0.00319761, Final residual = 0.000127054, No Iterations 2
time step continuity errors : sum local = 0.000577545, global = -4.04832e-05, cumulative = 0.00237336
smoothSolver:  Solving for epsilon, Initial residual = 0.000260865, Final residual = 2.1148e-05, No Iterations 1
bounding epsilon, min: -0.00012716 max: 876.315 average: 0.552329
smoothSolver:  Solving for k, Initial residual = 0.000908616, Final residual = 1.48115e-05, No Iterations 2
ExecutionTime = 18.46 s  ClockTime = 18 s

Time = 52

smoothSolver:  Solving for Ux, Initial residual = 0.00810764, Final residual = 0.00054954, No Iterations 4
smoothSolver:  Solving for Uy, Initial residual = 0.00834789, Final residual = 0.00055271, No Iterations 4
smoothSolver:  Solving for Uz, Initial residual = 0.012689, Final residual = 0.000898855, No Iterations 4
GAMG:  Solving for p, Initial residual = 0.00313774, Final residual = 0.000127161, No Iterations 2
time step continuity errors : sum local = 0.000570863, global = -4.45361e-05, cumulative = 0.00232883
smoothSolver:  Solving for epsilon, Initial residual = 0.000259473, Final residual = 2.10495e-05, No Iterations 1
bounding epsilon, min: -8.80678e-10 max: 875.389 average: 0.552778
smoothSolver:  Solving for k, Initial residual = 0.000895874, Final residual = 1.46238e-05, No Iterations 2
ExecutionTime = 18.72 s  ClockTime = 19 s

Time = 53

smoothSolver:  Solving for Ux, Initial residual = 0.00772696, Final residual = 0.000522898, No Iterations 4
smoothSolver:  Solving for Uy, Initial residual = 0.00799357, Final residual = 0.00052815, No Iterations 4
smoothSolver:  Solving for Uz, Initial residual = 0.0121495, Final residual = 0.000862894, No Iterations 4
GAMG:  Solving for p, Initial residual = 0.0030831, Final residual = 0.000126526, No Iterations 2
time step continuity errors : sum local = 0.000562286, global = -4.67176e-05, cumulative = 0.00228211
smoothSolver:  Solving for epsilon, Initial residual = 0.00025671, Final residual = 2.08758e-05, No Iterations 1
bounding epsilon, min: -0.000677167 max: 874.421 average: 0.553118
smoothSolver:  Solving for k, Initial residual = 0.000883759, Final residual = 1.44574e-05, No Iterations 2
ExecutionTime = 18.96 s  ClockTime = 19 s

Time = 54

smoothSolver:  Solving for Ux, Initial residual = 0.00733706, Final residual = 0.000493563, No Iterations 4
smoothSolver:  Solving for Uy, Initial residual = 0.00764265, Final residual = 0.000502895, No Iterations 4
smoothSolver:  Solving for Uz, Initial residual = 0.0116413, Final residual = 0.000831249, No Iterations 4
GAMG:  Solving for p, Initial residual = 0.00302884, Final residual = 0.000124779, No Iterations 2
time step continuity errors : sum local = 0.000549791, global = -4.66527e-05, cumulative = 0.00223546
smoothSolver:  Solving for epsilon, Initial residual = 0.000253618, Final residual = 2.06856e-05, No Iterations 1
smoothSolver:  Solving for k, Initial residual = 0.000871674, Final residual = 1.43021e-05, No Iterations 2
ExecutionTime = 19.21 s  ClockTime = 19 s

Time = 55

smoothSolver:  Solving for Ux, Initial residual = 0.00696284, Final residual = 0.000466031, No Iterations 4
smoothSolver:  Solving for Uy, Initial residual = 0.00730101, Final residual = 0.0004791, No Iterations 4
smoothSolver:  Solving for Uz, Initial residual = 0.0111427, Final residual = 0.000799381, No Iterations 4
GAMG:  Solving for p, Initial residual = 0.00297024, Final residual = 0.000121889, No Iterations 2
time step continuity errors : sum local = 0.000531331, global = -4.41698e-05, cumulative = 0.00219129
smoothSolver:  Solving for epsilon, Initial residual = 0.00025032, Final residual = 2.0444e-05, No Iterations 1
bounding epsilon, min: -5.12927e-09 max: 872.381 average: 0.5535
smoothSolver:  Solving for k, Initial residual = 0.000859884, Final residual = 1.41513e-05, No Iterations 2
ExecutionTime = 19.43 s  ClockTime = 20 s

Time = 56

smoothSolver:  Solving for Ux, Initial residual = 0.00661402, Final residual = 0.000443353, No Iterations 4
smoothSolver:  Solving for Uy, Initial residual = 0.00698232, Final residual = 0.00045885, No Iterations 4
smoothSolver:  Solving for Uz, Initial residual = 0.0106555, Final residual = 0.000765637, No Iterations 4
GAMG:  Solving for p, Initial residual = 0.00288109, Final residual = 0.000116985, No Iterations 2
time step continuity errors : sum local = 0.000506848, global = -3.95709e-05, cumulative = 0.00215172
smoothSolver:  Solving for epsilon, Initial residual = 0.000247039, Final residual = 2.01944e-05, No Iterations 1
bounding epsilon, min: -0.0087793 max: 871.318 average: 0.553558
smoothSolver:  Solving for k, Initial residual = 0.000848328, Final residual = 1.40046e-05, No Iterations 2
ExecutionTime = 19.65 s  ClockTime = 20 s

Time = 57

smoothSolver:  Solving for Ux, Initial residual = 0.00631013, Final residual = 0.000427822, No Iterations 4
smoothSolver:  Solving for Uy, Initial residual = 0.00669756, Final residual = 0.000444249, No Iterations 4
smoothSolver:  Solving for Uz, Initial residual = 0.0101622, Final residual = 0.00072907, No Iterations 4
GAMG:  Solving for p, Initial residual = 0.0027416, Final residual = 0.000110146, No Iterations 2
time step continuity errors : sum local = 0.000477067, global = -3.36641e-05, cumulative = 0.00211805
smoothSolver:  Solving for epsilon, Initial residual = 0.00024561, Final residual = 1.99444e-05, No Iterations 1
bounding epsilon, min: -0.00205076 max: 870.234 average: 0.553538
smoothSolver:  Solving for k, Initial residual = 0.000836277, Final residual = 1.38606e-05, No Iterations 2
ExecutionTime = 19.88 s  ClockTime = 20 s

Time = 58

smoothSolver:  Solving for Ux, Initial residual = 0.00605928, Final residual = 0.000416144, No Iterations 4
smoothSolver:  Solving for Uy, Initial residual = 0.00644121, Final residual = 0.000431734, No Iterations 4
smoothSolver:  Solving for Uz, Initial residual = 0.00967807, Final residual = 0.000690527, No Iterations 4
GAMG:  Solving for p, Initial residual = 0.00257698, Final residual = 0.000102023, No Iterations 2
time step continuity errors : sum local = 0.000443988, global = -2.79074e-05, cumulative = 0.00209015
smoothSolver:  Solving for epsilon, Initial residual = 0.000241433, Final residual = 1.96724e-05, No Iterations 1
bounding epsilon, min: -0.0079616 max: 869.132 average: 0.553445
smoothSolver:  Solving for k, Initial residual = 0.000823179, Final residual = 1.37235e-05, No Iterations 2
ExecutionTime = 20.11 s  ClockTime = 20 s

Time = 59

smoothSolver:  Solving for Ux, Initial residual = 0.00583196, Final residual = 0.000405834, No Iterations 4
smoothSolver:  Solving for Uy, Initial residual = 0.00620068, Final residual = 0.000420242, No Iterations 4
smoothSolver:  Solving for Uz, Initial residual = 0.00920298, Final residual = 0.000652078, No Iterations 4
GAMG:  Solving for p, Initial residual = 0.00243855, Final residual = 9.35887e-05, No Iterations 2
time step continuity errors : sum local = 0.00040815, global = -2.27402e-05, cumulative = 0.00206741
smoothSolver:  Solving for epsilon, Initial residual = 0.000236712, Final residual = 1.93988e-05, No Iterations 1
bounding epsilon, min: -1.01156e-07 max: 868.448 average: 0.553283
smoothSolver:  Solving for k, Initial residual = 0.000810222, Final residual = 1.35788e-05, No Iterations 2
ExecutionTime = 20.36 s  ClockTime = 20 s

Time = 60

smoothSolver:  Solving for Ux, Initial residual = 0.00563569, Final residual = 0.000396297, No Iterations 4
smoothSolver:  Solving for Uy, Initial residual = 0.00598584, Final residual = 0.00040874, No Iterations 4
smoothSolver:  Solving for Uz, Initial residual = 0.00875378, Final residual = 0.000614129, No Iterations 4
GAMG:  Solving for p, Initial residual = 0.00232224, Final residual = 8.4955e-05, No Iterations 2
time step continuity errors : sum local = 0.000370837, global = -1.85342e-05, cumulative = 0.00204887
smoothSolver:  Solving for epsilon, Initial residual = 0.000232198, Final residual = 1.9112e-05, No Iterations 1
bounding epsilon, min: -0.000442513 max: 868.973 average: 0.553062
smoothSolver:  Solving for k, Initial residual = 0.000798421, Final residual = 1.34482e-05, No Iterations 2
bounding k, min: -2.68112e-11 max: 2.74353 average: 0.00961127
ExecutionTime = 20.58 s  ClockTime = 21 s

Time = 61

smoothSolver:  Solving for Ux, Initial residual = 0.00546781, Final residual = 0.00038735, No Iterations 4
smoothSolver:  Solving for Uy, Initial residual = 0.00579372, Final residual = 0.000397313, No Iterations 4
smoothSolver:  Solving for Uz, Initial residual = 0.00833957, Final residual = 0.000578452, No Iterations 4
GAMG:  Solving for p, Initial residual = 0.00222774, Final residual = 7.6436e-05, No Iterations 2
time step continuity errors : sum local = 0.000334984, global = -1.54562e-05, cumulative = 0.00203342
smoothSolver:  Solving for epsilon, Initial residual = 0.000228722, Final residual = 1.8849e-05, No Iterations 1
bounding epsilon, min: -2.44563e-08 max: 869.437 average: 0.552786
smoothSolver:  Solving for k, Initial residual = 0.000785358, Final residual = 1.32903e-05, No Iterations 2
ExecutionTime = 20.8 s  ClockTime = 21 s

Time = 62

smoothSolver:  Solving for Ux, Initial residual = 0.00532258, Final residual = 0.000378398, No Iterations 4
smoothSolver:  Solving for Uy, Initial residual = 0.00562012, Final residual = 0.000386549, No Iterations 4
smoothSolver:  Solving for Uz, Initial residual = 0.00796868, Final residual = 0.000546045, No Iterations 4
GAMG:  Solving for p, Initial residual = 0.00216168, Final residual = 6.89232e-05, No Iterations 2
time step continuity errors : sum local = 0.000301717, global = -1.26259e-05, cumulative = 0.00202079
smoothSolver:  Solving for epsilon, Initial residual = 0.000225674, Final residual = 1.85399e-05, No Iterations 1
bounding epsilon, min: -0.00106151 max: 869.863 average: 0.552465
smoothSolver:  Solving for k, Initial residual = 0.000766644, Final residual = 1.30331e-05, No Iterations 2
bounding k, min: -7.07373e-13 max: 2.74528 average: 0.00957563
ExecutionTime = 21.03 s  ClockTime = 21 s

Time = 63

smoothSolver:  Solving for Ux, Initial residual = 0.00519194, Final residual = 0.00036757, No Iterations 4
smoothSolver:  Solving for Uy, Initial residual = 0.0054629, Final residual = 0.000375866, No Iterations 4
smoothSolver:  Solving for Uz, Initial residual = 0.0076426, Final residual = 0.000516526, No Iterations 4
GAMG:  Solving for p, Initial residual = 0.00208867, Final residual = 6.21385e-05, No Iterations 2
time step continuity errors : sum local = 0.000273507, global = -1.03904e-05, cumulative = 0.0020104
smoothSolver:  Solving for epsilon, Initial residual = 0.000219588, Final residual = 1.797e-05, No Iterations 1
bounding epsilon, min: -0.00098794 max: 870.27 average: 0.5521
smoothSolver:  Solving for k, Initial residual = 0.000756855, Final residual = 1.29176e-05, No Iterations 2
bounding k, min: -1.11764e-11 max: 2.74614 average: 0.00955779
ExecutionTime = 21.25 s  ClockTime = 21 s

Time = 64

smoothSolver:  Solving for Ux, Initial residual = 0.00506318, Final residual = 0.000355108, No Iterations 4
smoothSolver:  Solving for Uy, Initial residual = 0.00531364, Final residual = 0.000364569, No Iterations 4
smoothSolver:  Solving for Uz, Initial residual = 0.00736815, Final residual = 0.000490507, No Iterations 4
GAMG:  Solving for p, Initial residual = 0.00204078, Final residual = 5.65415e-05, No Iterations 2
time step continuity errors : sum local = 0.000250077, global = -7.94796e-06, cumulative = 0.00200245
smoothSolver:  Solving for epsilon, Initial residual = 0.000216747, Final residual = 1.77097e-05, No Iterations 1
bounding epsilon, min: -0.000673576 max: 870.678 average: 0.551698
smoothSolver:  Solving for k, Initial residual = 0.000746511, Final residual = 1.27864e-05, No Iterations 2
bounding k, min: -1.1002e-12 max: 2.74704 average: 0.00953997
ExecutionTime = 21.47 s  ClockTime = 21 s

Time = 65

smoothSolver:  Solving for Ux, Initial residual = 0.00493374, Final residual = 0.000341851, No Iterations 4
smoothSolver:  Solving for Uy, Initial residual = 0.0051735, Final residual = 0.000352694, No Iterations 4
smoothSolver:  Solving for Uz, Initial residual = 0.00713308, Final residual = 0.000467668, No Iterations 4
GAMG:  Solving for p, Initial residual = 0.00200324, Final residual = 5.17266e-05, No Iterations 2
time step continuity errors : sum local = 0.00023134, global = -5.76017e-06, cumulative = 0.00199669
smoothSolver:  Solving for epsilon, Initial residual = 0.000214783, Final residual = 1.75085e-05, No Iterations 1
bounding epsilon, min: -0.0116821 max: 871.104 average: 0.551266
smoothSolver:  Solving for k, Initial residual = 0.000737311, Final residual = 1.26685e-05, No Iterations 2
ExecutionTime = 21.68 s  ClockTime = 21 s

Time = 66

smoothSolver:  Solving for Ux, Initial residual = 0.00480547, Final residual = 0.000328271, No Iterations 4
smoothSolver:  Solving for Uy, Initial residual = 0.00503968, Final residual = 0.000340239, No Iterations 4
smoothSolver:  Solving for Uz, Initial residual = 0.00694169, Final residual = 0.000447622, No Iterations 4
GAMG:  Solving for p, Initial residual = 0.00195543, Final residual = 4.82137e-05, No Iterations 2
time step continuity errors : sum local = 0.000218125, global = -4.65904e-06, cumulative = 0.00199203
smoothSolver:  Solving for epsilon, Initial residual = 0.000212153, Final residual = 1.70948e-05, No Iterations 1
bounding epsilon, min: -0.00108559 max: 871.563 average: 0.550808
smoothSolver:  Solving for k, Initial residual = 0.000721771, Final residual = 1.24441e-05, No Iterations 2
bounding k, min: -3.1872e-12 max: 2.74907 average: 0.00950449
ExecutionTime = 21.9 s  ClockTime = 21 s

Time = 67

smoothSolver:  Solving for Ux, Initial residual = 0.00468269, Final residual = 0.000315289, No Iterations 4
smoothSolver:  Solving for Uy, Initial residual = 0.00491154, Final residual = 0.000327613, No Iterations 4
smoothSolver:  Solving for Uz, Initial residual = 0.00678763, Final residual = 0.000430498, No Iterations 4
GAMG:  Solving for p, Initial residual = 0.00188581, Final residual = 4.62441e-05, No Iterations 2
time step continuity errors : sum local = 0.000212414, global = -4.96639e-06, cumulative = 0.00198707
smoothSolver:  Solving for epsilon, Initial residual = 0.000193563, Final residual = 1.56162e-05, No Iterations 1
bounding epsilon, min: -0.00194085 max: 872.073 average: 0.550327
smoothSolver:  Solving for k, Initial residual = 0.000678813, Final residual = 1.17432e-05, No Iterations 2
ExecutionTime = 22.12 s  ClockTime = 22 s

Time = 68

smoothSolver:  Solving for Ux, Initial residual = 0.00456713, Final residual = 0.000303364, No Iterations 4
smoothSolver:  Solving for Uy, Initial residual = 0.00478092, Final residual = 0.000314743, No Iterations 4
smoothSolver:  Solving for Uz, Initial residual = 0.00665115, Final residual = 0.000416061, No Iterations 4
GAMG:  Solving for p, Initial residual = 0.00181051, Final residual = 4.49779e-05, No Iterations 2
time step continuity errors : sum local = 0.000209483, global = -6.4032e-06, cumulative = 0.00198066
smoothSolver:  Solving for epsilon, Initial residual = 7.1947e-05, Final residual = 5.80854e-06, No Iterations 1
bounding epsilon, min: -0.00139755 max: 872.637 average: 0.549829
smoothSolver:  Solving for k, Initial residual = 0.000333279, Final residual = 5.78501e-06, No Iterations 2
bounding k, min: -1.54374e-11 max: 2.75158 average: 0.00946933
ExecutionTime = 23.07 s  ClockTime = 23 s

Time = 69

smoothSolver:  Solving for Ux, Initial residual = 0.00445668, Final residual = 0.000292473, No Iterations 4
smoothSolver:  Solving for Uy, Initial residual = 0.00464876, Final residual = 0.000301605, No Iterations 4
smoothSolver:  Solving for Uz, Initial residual = 0.00652254, Final residual = 0.000404942, No Iterations 4
GAMG:  Solving for p, Initial residual = 0.00173139, Final residual = 4.36264e-05, No Iterations 2
time step continuity errors : sum local = 0.000204152, global = -8.64483e-06, cumulative = 0.00197202
smoothSolver:  Solving for epsilon, Initial residual = 0.000214537, Final residual = 1.73327e-05, No Iterations 1
bounding epsilon, min: -0.00114659 max: 873.264 average: 0.549317
smoothSolver:  Solving for k, Initial residual = 0.000708885, Final residual = 1.23374e-05, No Iterations 2
bounding k, min: -1.00815e-11 max: 2.75304 average: 0.00945191
ExecutionTime = 23.07 s  ClockTime = 23 s

Time = 70

smoothSolver:  Solving for Ux, Initial residual = 0.00435756, Final residual = 0.000283623, No Iterations 4
smoothSolver:  Solving for Uy, Initial residual = 0.00451838, Final residual = 0.00028968, No Iterations 4
smoothSolver:  Solving for Uz, Initial residual = 0.00638187, Final residual = 0.000394577, No Iterations 4
GAMG:  Solving for p, Initial residual = 0.00165036, Final residual = 4.26663e-05, No Iterations 2
time step continuity errors : sum local = 0.000199983, global = -1.0788e-05, cumulative = 0.00196123
smoothSolver:  Solving for epsilon, Initial residual = 0.000214746, Final residual = 1.73859e-05, No Iterations 1
bounding epsilon, min: -0.00154173 max: 873.961 average: 0.548794
smoothSolver:  Solving for k, Initial residual = 0.000703324, Final residual = 1.2263e-05, No Iterations 2
bounding k, min: -5.85126e-10 max: 2.75466 average: 0.00943463
ExecutionTime = 23.13 s  ClockTime = 23 s

Time = 71

smoothSolver:  Solving for Ux, Initial residual = 0.00427305, Final residual = 0.000277126, No Iterations 4
smoothSolver:  Solving for Uy, Initial residual = 0.00439469, Final residual = 0.000279819, No Iterations 4
smoothSolver:  Solving for Uz, Initial residual = 0.0062348, Final residual = 0.000384649, No Iterations 4
GAMG:  Solving for p, Initial residual = 0.0015588, Final residual = 4.1084e-05, No Iterations 2
time step continuity errors : sum local = 0.000194585, global = -1.21488e-05, cumulative = 0.00194908
smoothSolver:  Solving for epsilon, Initial residual = 0.000213398, Final residual = 1.7322e-05, No Iterations 1
bounding epsilon, min: -0.00198022 max: 874.732 average: 0.54826
smoothSolver:  Solving for k, Initial residual = 0.00069569, Final residual = 1.21439e-05, No Iterations 2
bounding k, min: -5.2541e-10 max: 2.75645 average: 0.00941749
ExecutionTime = 24.17 s  ClockTime = 24 s

Time = 72

smoothSolver:  Solving for Ux, Initial residual = 0.00419807, Final residual = 0.000271847, No Iterations 4
smoothSolver:  Solving for Uy, Initial residual = 0.00427879, Final residual = 0.000271728, No Iterations 4
smoothSolver:  Solving for Uz, Initial residual = 0.00608493, Final residual = 0.000375538, No Iterations 4
GAMG:  Solving for p, Initial residual = 0.00146993, Final residual = 3.9267e-05, No Iterations 2
time step continuity errors : sum local = 0.000188417, global = -1.27307e-05, cumulative = 0.00193635
smoothSolver:  Solving for epsilon, Initial residual = 0.000207606, Final residual = 1.68767e-05, No Iterations 1
bounding epsilon, min: -0.00116907 max: 875.584 average: 0.54772
smoothSolver:  Solving for k, Initial residual = 0.000679806, Final residual = 1.18826e-05, No Iterations 2
bounding k, min: -3.0292e-12 max: 2.75881 average: 0.0094005
ExecutionTime = 24.17 s  ClockTime = 24 s

Time = 73

smoothSolver:  Solving for Ux, Initial residual = 0.00412989, Final residual = 0.000267488, No Iterations 4
smoothSolver:  Solving for Uy, Initial residual = 0.00416793, Final residual = 0.000264991, No Iterations 4
smoothSolver:  Solving for Uz, Initial residual = 0.00593439, Final residual = 0.000368162, No Iterations 4
GAMG:  Solving for p, Initial residual = 0.00138417, Final residual = 3.7384e-05, No Iterations 2
time step continuity errors : sum local = 0.000182124, global = -1.27312e-05, cumulative = 0.00192362
smoothSolver:  Solving for epsilon, Initial residual = 0.000209474, Final residual = 1.70304e-05, No Iterations 1
bounding epsilon, min: -0.000617391 max: 876.786 average: 0.547171
smoothSolver:  Solving for k, Initial residual = 0.000678514, Final residual = 1.18723e-05, No Iterations 2
bounding k, min: -5.73853e-14 max: 2.76484 average: 0.00938366
ExecutionTime = 24.17 s  ClockTime = 24 s

Time = 74

smoothSolver:  Solving for Ux, Initial residual = 0.00406919, Final residual = 0.00026388, No Iterations 4
smoothSolver:  Solving for Uy, Initial residual = 0.00406555, Final residual = 0.000259341, No Iterations 4
smoothSolver:  Solving for Uz, Initial residual = 0.0057987, Final residual = 0.000362595, No Iterations 4
GAMG:  Solving for p, Initial residual = 0.00130309, Final residual = 3.56397e-05, No Iterations 2
time step continuity errors : sum local = 0.00017666, global = -1.22491e-05, cumulative = 0.00191137
smoothSolver:  Solving for epsilon, Initial residual = 0.000206523, Final residual = 1.67875e-05, No Iterations 1
bounding epsilon, min: -0.0105347 max: 879.662 average: 0.546616
smoothSolver:  Solving for k, Initial residual = 0.000668455, Final residual = 1.17057e-05, No Iterations 2
bounding k, min: -4.45528e-13 max: 2.77096 average: 0.00936698
ExecutionTime = 24.17 s  ClockTime = 24 s

Time = 75

smoothSolver:  Solving for Ux, Initial residual = 0.00401998, Final residual = 0.000260956, No Iterations 4
smoothSolver:  Solving for Uy, Initial residual = 0.00397347, Final residual = 0.000254419, No Iterations 4
smoothSolver:  Solving for Uz, Initial residual = 0.0056839, Final residual = 0.00035825, No Iterations 4
GAMG:  Solving for p, Initial residual = 0.00122436, Final residual = 3.40048e-05, No Iterations 2
time step continuity errors : sum local = 0.000171825, global = -1.12336e-05, cumulative = 0.00190014
smoothSolver:  Solving for epsilon, Initial residual = 0.000202365, Final residual = 1.63288e-05, No Iterations 1
bounding epsilon, min: -0.00636218 max: 882.585 average: 0.546057
smoothSolver:  Solving for k, Initial residual = 0.000653113, Final residual = 1.14562e-05, No Iterations 2
bounding k, min: -1.11655e-10 max: 2.77704 average: 0.00935044
ExecutionTime = 24.32 s  ClockTime = 24 s

Time = 76

smoothSolver:  Solving for Ux, Initial residual = 0.0039723, Final residual = 0.000258823, No Iterations 4
smoothSolver:  Solving for Uy, Initial residual = 0.00388416, Final residual = 0.000250148, No Iterations 4
smoothSolver:  Solving for Uz, Initial residual = 0.00557396, Final residual = 0.000354631, No Iterations 4
GAMG:  Solving for p, Initial residual = 0.00115977, Final residual = 3.26292e-05, No Iterations 2
time step continuity errors : sum local = 0.000168061, global = -9.9842e-06, cumulative = 0.00189015
smoothSolver:  Solving for epsilon, Initial residual = 0.000203039, Final residual = 1.64935e-05, No Iterations 1
bounding epsilon, min: -0.0016271 max: 885.491 average: 0.54549
smoothSolver:  Solving for k, Initial residual = 0.000652964, Final residual = 1.1484e-05, No Iterations 2
bounding k, min: -1.4235e-11 max: 2.78294 average: 0.00933407
ExecutionTime = 24.54 s  ClockTime = 25 s

Time = 77

smoothSolver:  Solving for Ux, Initial residual = 0.00392691, Final residual = 0.000257192, No Iterations 4
smoothSolver:  Solving for Uy, Initial residual = 0.00380026, Final residual = 0.000246293, No Iterations 4
smoothSolver:  Solving for Uz, Initial residual = 0.0054788, Final residual = 0.000352237, No Iterations 4
GAMG:  Solving for p, Initial residual = 0.00110828, Final residual = 3.16642e-05, No Iterations 2
time step continuity errors : sum local = 0.000165586, global = -8.8353e-06, cumulative = 0.00188132
smoothSolver:  Solving for epsilon, Initial residual = 0.000196189, Final residual = 1.604e-05, No Iterations 1
bounding epsilon, min: -1.7252e-06 max: 888.317 average: 0.544916
smoothSolver:  Solving for k, Initial residual = 0.00063927, Final residual = 1.12729e-05, No Iterations 2
bounding k, min: -4.25207e-09 max: 2.78856 average: 0.00931786
ExecutionTime = 24.76 s  ClockTime = 25 s

Time = 78

smoothSolver:  Solving for Ux, Initial residual = 0.00388252, Final residual = 0.000255608, No Iterations 4
smoothSolver:  Solving for Uy, Initial residual = 0.00373081, Final residual = 0.000242728, No Iterations 4
smoothSolver:  Solving for Uz, Initial residual = 0.00540978, Final residual = 0.000350697, No Iterations 4
GAMG:  Solving for p, Initial residual = 0.00107092, Final residual = 3.09443e-05, No Iterations 2
time step continuity errors : sum local = 0.00016385, global = -7.94389e-06, cumulative = 0.00187337
smoothSolver:  Solving for epsilon, Initial residual = 0.000178413, Final residual = 1.46852e-05, No Iterations 1
bounding epsilon, min: -0.00320749 max: 891.005 average: 0.544335
smoothSolver:  Solving for k, Initial residual = 0.000604013, Final residual = 1.06803e-05, No Iterations 2
bounding k, min: -1.36467e-10 max: 2.79377 average: 0.00930181
ExecutionTime = 24.99 s  ClockTime = 25 s

Time = 79

smoothSolver:  Solving for Ux, Initial residual = 0.0038341, Final residual = 0.000253817, No Iterations 4
smoothSolver:  Solving for Uy, Initial residual = 0.00366134, Final residual = 0.000239489, No Iterations 4
smoothSolver:  Solving for Uz, Initial residual = 0.00534082, Final residual = 0.000350263, No Iterations 4
GAMG:  Solving for p, Initial residual = 0.0010464, Final residual = 3.04028e-05, No Iterations 2
time step continuity errors : sum local = 0.000161887, global = -7.04042e-06, cumulative = 0.00186633
smoothSolver:  Solving for epsilon, Initial residual = 0.000187506, Final residual = 1.55375e-05, No Iterations 1
bounding epsilon, min: -0.00141402 max: 893.506 average: 0.543746
smoothSolver:  Solving for k, Initial residual = 0.000620524, Final residual = 1.09854e-05, No Iterations 2
bounding k, min: -7.25688e-14 max: 2.7985 average: 0.00928591
ExecutionTime = 25.21 s  ClockTime = 26 s

Time = 80

smoothSolver:  Solving for Ux, Initial residual = 0.003786, Final residual = 0.000251923, No Iterations 4
smoothSolver:  Solving for Uy, Initial residual = 0.00359789, Final residual = 0.000236479, No Iterations 4
smoothSolver:  Solving for Uz, Initial residual = 0.00529389, Final residual = 0.000350675, No Iterations 4
GAMG:  Solving for p, Initial residual = 0.00103386, Final residual = 2.98987e-05, No Iterations 2
time step continuity errors : sum local = 0.000159125, global = -6.56824e-06, cumulative = 0.00185976
smoothSolver:  Solving for epsilon, Initial residual = 0.00013476, Final residual = 1.11735e-05, No Iterations 1
bounding epsilon, min: -0.00196725 max: 895.774 average: 0.543149
smoothSolver:  Solving for k, Initial residual = 0.000508836, Final residual = 9.0133e-06, No Iterations 2
bounding k, min: -7.81467e-12 max: 2.80266 average: 0.00927017
ExecutionTime = 25.43 s  ClockTime = 26 s

Time = 81

smoothSolver:  Solving for Ux, Initial residual = 0.00373839, Final residual = 0.000250213, No Iterations 4
smoothSolver:  Solving for Uy, Initial residual = 0.00354107, Final residual = 0.000233556, No Iterations 4
smoothSolver:  Solving for Uz, Initial residual = 0.0052684, Final residual = 0.000351688, No Iterations 4
GAMG:  Solving for p, Initial residual = 0.00102425, Final residual = 2.93935e-05, No Iterations 2
time step continuity errors : sum local = 0.000156362, global = -6.52657e-06, cumulative = 0.00185324
smoothSolver:  Solving for epsilon, Initial residual = 0.000175768, Final residual = 1.45093e-05, No Iterations 1
bounding epsilon, min: -0.000939074 max: 897.771 average: 0.542544
smoothSolver:  Solving for k, Initial residual = 0.000591501, Final residual = 1.04789e-05, No Iterations 2
bounding k, min: -1.48981e-12 max: 2.80618 average: 0.0092546
ExecutionTime = 25.64 s  ClockTime = 26 s

Time = 82

smoothSolver:  Solving for Ux, Initial residual = 0.00369036, Final residual = 0.000248696, No Iterations 4
smoothSolver:  Solving for Uy, Initial residual = 0.00349036, Final residual = 0.000230904, No Iterations 4
smoothSolver:  Solving for Uz, Initial residual = 0.00524367, Final residual = 0.000353096, No Iterations 4
GAMG:  Solving for p, Initial residual = 0.00101656, Final residual = 2.88587e-05, No Iterations 2
time step continuity errors : sum local = 0.000153469, global = -6.6264e-06, cumulative = 0.00184661
smoothSolver:  Solving for epsilon, Initial residual = 0.000184732, Final residual = 1.51842e-05, No Iterations 1
bounding epsilon, min: -0.000287248 max: 899.467 average: 0.541929
smoothSolver:  Solving for k, Initial residual = 0.000607673, Final residual = 1.07683e-05, No Iterations 2
bounding k, min: -5.11632e-10 max: 2.80903 average: 0.0092392
ExecutionTime = 26.22 s  ClockTime = 26 s

Time = 83

smoothSolver:  Solving for Ux, Initial residual = 0.00364457, Final residual = 0.000247231, No Iterations 4
smoothSolver:  Solving for Uy, Initial residual = 0.00344477, Final residual = 0.000228494, No Iterations 4
smoothSolver:  Solving for Uz, Initial residual = 0.00522421, Final residual = 0.000354648, No Iterations 4
GAMG:  Solving for p, Initial residual = 0.00101571, Final residual = 2.8539e-05, No Iterations 2
time step continuity errors : sum local = 0.000151767, global = -6.70423e-06, cumulative = 0.00183991
smoothSolver:  Solving for epsilon, Initial residual = 0.000182695, Final residual = 1.49585e-05, No Iterations 1
bounding epsilon, min: -0.00630487 max: 900.837 average: 0.541307
smoothSolver:  Solving for k, Initial residual = 0.000600419, Final residual = 1.06437e-05, No Iterations 2
bounding k, min: -3.53213e-09 max: 2.81116 average: 0.00922396
ExecutionTime = 26.22 s  ClockTime = 26 s

Time = 84

smoothSolver:  Solving for Ux, Initial residual = 0.00360088, Final residual = 0.000245836, No Iterations 4
smoothSolver:  Solving for Uy, Initial residual = 0.00340544, Final residual = 0.00022645, No Iterations 4
smoothSolver:  Solving for Uz, Initial residual = 0.00520938, Final residual = 0.00035599, No Iterations 4
GAMG:  Solving for p, Initial residual = 0.00101531, Final residual = 2.83125e-05, No Iterations 2
time step continuity errors : sum local = 0.00015114, global = -6.74433e-06, cumulative = 0.00183316
smoothSolver:  Solving for epsilon, Initial residual = 0.000182252, Final residual = 1.47472e-05, No Iterations 1
bounding epsilon, min: -3.9072e-07 max: 901.863 average: 0.540679
smoothSolver:  Solving for k, Initial residual = 0.000592503, Final residual = 1.05191e-05, No Iterations 2
bounding k, min: -2.73776e-14 max: 2.81256 average: 0.00920892
ExecutionTime = 26.29 s  ClockTime = 26 s

Time = 85

smoothSolver:  Solving for Ux, Initial residual = 0.00355887, Final residual = 0.000244622, No Iterations 4
smoothSolver:  Solving for Uy, Initial residual = 0.00337257, Final residual = 0.000224891, No Iterations 4
smoothSolver:  Solving for Uz, Initial residual = 0.00519147, Final residual = 0.000356848, No Iterations 4
GAMG:  Solving for p, Initial residual = 0.00101286, Final residual = 2.82651e-05, No Iterations 2
time step continuity errors : sum local = 0.000151491, global = -6.89008e-06, cumulative = 0.00182627
smoothSolver:  Solving for epsilon, Initial residual = 0.000177665, Final residual = 1.45002e-05, No Iterations 1
bounding epsilon, min: -0.00104985 max: 902.533 average: 0.540044
smoothSolver:  Solving for k, Initial residual = 0.000582916, Final residual = 1.03678e-05, No Iterations 2
bounding k, min: -1.02814e-09 max: 2.8132 average: 0.00919407
ExecutionTime = 26.58 s  ClockTime = 27 s

Time = 86

smoothSolver:  Solving for Ux, Initial residual = 0.00351929, Final residual = 0.000243501, No Iterations 4
smoothSolver:  Solving for Uy, Initial residual = 0.00334624, Final residual = 0.000223825, No Iterations 4
smoothSolver:  Solving for Uz, Initial residual = 0.00516942, Final residual = 0.000356986, No Iterations 4
GAMG:  Solving for p, Initial residual = 0.00101052, Final residual = 2.82425e-05, No Iterations 2
time step continuity errors : sum local = 0.000152044, global = -7.03951e-06, cumulative = 0.00181923
smoothSolver:  Solving for epsilon, Initial residual = 0.000174236, Final residual = 1.42214e-05, No Iterations 1
bounding epsilon, min: -0.016679 max: 902.841 average: 0.539406
smoothSolver:  Solving for k, Initial residual = 0.000574396, Final residual = 1.02327e-05, No Iterations 2
bounding k, min: -1.2558e-09 max: 2.81308 average: 0.00917941
ExecutionTime = 26.85 s  ClockTime = 27 s

Time = 87

smoothSolver:  Solving for Ux, Initial residual = 0.00348061, Final residual = 0.000242355, No Iterations 4
smoothSolver:  Solving for Uy, Initial residual = 0.00332492, Final residual = 0.000223253, No Iterations 4
smoothSolver:  Solving for Uz, Initial residual = 0.0051387, Final residual = 0.000356361, No Iterations 4
GAMG:  Solving for p, Initial residual = 0.00100606, Final residual = 2.8173e-05, No Iterations 2
time step continuity errors : sum local = 0.000152743, global = -7.3031e-06, cumulative = 0.00181193
smoothSolver:  Solving for epsilon, Initial residual = 0.000160511, Final residual = 1.31638e-05, No Iterations 1
bounding epsilon, min: -9.85446e-07 max: 902.786 average: 0.538766
smoothSolver:  Solving for k, Initial residual = 0.000546765, Final residual = 9.7347e-06, No Iterations 2
bounding k, min: -1.52401e-09 max: 2.81221 average: 0.00916497
ExecutionTime = 27.67 s  ClockTime = 28 s

Time = 88

smoothSolver:  Solving for Ux, Initial residual = 0.00344291, Final residual = 0.000241247, No Iterations 4
smoothSolver:  Solving for Uy, Initial residual = 0.00330783, Final residual = 0.000223086, No Iterations 4
smoothSolver:  Solving for Uz, Initial residual = 0.00510167, Final residual = 0.000355004, No Iterations 4
GAMG:  Solving for p, Initial residual = 0.00101408, Final residual = 2.84942e-05, No Iterations 2
time step continuity errors : sum local = 0.000153888, global = -7.76491e-06, cumulative = 0.00180416
smoothSolver:  Solving for epsilon, Initial residual = 0.000170817, Final residual = 1.3981e-05, No Iterations 1
bounding epsilon, min: -3.96132e-06 max: 902.367 average: 0.538125
smoothSolver:  Solving for k, Initial residual = 0.000562132, Final residual = 9.99381e-06, No Iterations 2
bounding k, min: -7.68164e-11 max: 2.81059 average: 0.00915074
ExecutionTime = 27.67 s  ClockTime = 29 s

Time = 89

smoothSolver:  Solving for Ux, Initial residual = 0.00340588, Final residual = 0.000240089, No Iterations 4
smoothSolver:  Solving for Uy, Initial residual = 0.00329643, Final residual = 0.000223146, No Iterations 4
smoothSolver:  Solving for Uz, Initial residual = 0.00506012, Final residual = 0.000353268, No Iterations 4
GAMG:  Solving for p, Initial residual = 0.0010201, Final residual = 2.88404e-05, No Iterations 2
time step continuity errors : sum local = 0.000155277, global = -8.40324e-06, cumulative = 0.00179576
smoothSolver:  Solving for epsilon, Initial residual = 0.000171233, Final residual = 1.3936e-05, No Iterations 1
bounding epsilon, min: -0.00258416 max: 901.586 average: 0.537486
smoothSolver:  Solving for k, Initial residual = 0.000557675, Final residual = 9.90428e-06, No Iterations 2
bounding k, min: -3.69821e-10 max: 2.8121 average: 0.00913674
ExecutionTime = 29.2 s  ClockTime = 29 s

Time = 90

smoothSolver:  Solving for Ux, Initial residual = 0.00337015, Final residual = 0.000238914, No Iterations 4
smoothSolver:  Solving for Uy, Initial residual = 0.00328877, Final residual = 0.000223439, No Iterations 4
smoothSolver:  Solving for Uz, Initial residual = 0.00501745, Final residual = 0.000351115, No Iterations 4
GAMG:  Solving for p, Initial residual = 0.00101877, Final residual = 2.90972e-05, No Iterations 2
time step continuity errors : sum local = 0.000156373, global = -9.5186e-06, cumulative = 0.00178624
smoothSolver:  Solving for epsilon, Initial residual = 0.00017052, Final residual = 1.38104e-05, No Iterations 1
bounding epsilon, min: -6.19643e-08 max: 902.233 average: 0.536851
smoothSolver:  Solving for k, Initial residual = 0.00055059, Final residual = 9.77286e-06, No Iterations 2
bounding k, min: -3.91762e-10 max: 2.81555 average: 0.00912297
ExecutionTime = 29.2 s  ClockTime = 29 s

Time = 91

smoothSolver:  Solving for Ux, Initial residual = 0.00333729, Final residual = 0.000237681, No Iterations 4
smoothSolver:  Solving for Uy, Initial residual = 0.00328479, Final residual = 0.000223748, No Iterations 4
smoothSolver:  Solving for Uz, Initial residual = 0.00497714, Final residual = 0.00034854, No Iterations 4
GAMG:  Solving for p, Initial residual = 0.0010178, Final residual = 2.94618e-05, No Iterations 2
time step continuity errors : sum local = 0.000157468, global = -1.0861e-05, cumulative = 0.00177538
smoothSolver:  Solving for epsilon, Initial residual = 0.000171438, Final residual = 1.38442e-05, No Iterations 1
bounding epsilon, min: -0.00570052 max: 903.894 average: 0.53622
smoothSolver:  Solving for k, Initial residual = 0.000545388, Final residual = 9.67058e-06, No Iterations 2
bounding k, min: -6.35083e-10 max: 2.81891 average: 0.00910944
ExecutionTime = 29.2 s  ClockTime = 29 s

Time = 92

smoothSolver:  Solving for Ux, Initial residual = 0.00330621, Final residual = 0.000236233, No Iterations 4
smoothSolver:  Solving for Uy, Initial residual = 0.00328072, Final residual = 0.000223938, No Iterations 4
[...]
smoothSolver:  Solving for epsilon, Initial residual = 0.000578674, Final residual = 2.84641e-05, No Iterations 1
bounding epsilon, min: -5.18515e-05 max: 869.047 average: 0.525166
smoothSolver:  Solving for k, Initial residual = 0.000867817, Final residual = 1.42304e-05, No Iterations 2
ExecutionTime = 236.86 s  ClockTime = 235 s

Time = 978

smoothSolver:  Solving for Ux, Initial residual = 0.00655791, Final residual = 0.000426212, No Iterations 4
smoothSolver:  Solving for Uy, Initial residual = 0.00938669, Final residual = 0.000638579, No Iterations 4
smoothSolver:  Solving for Uz, Initial residual = 0.00917784, Final residual = 0.000537921, No Iterations 4
GAMG:  Solving for p, Initial residual = 0.00420523, Final residual = 0.000119467, No Iterations 2
time step continuity errors : sum local = 0.000363627, global = -1.20076e-05, cumulative = -0.000151297
smoothSolver:  Solving for epsilon, Initial residual = 0.000502569, Final residual = 2.84588e-05, No Iterations 1
smoothSolver:  Solving for k, Initial residual = 0.000867084, Final residual = 1.42369e-05, No Iterations 2
ExecutionTime = 237.06 s  ClockTime = 236 s

Time = 979

smoothSolver:  Solving for Ux, Initial residual = 0.00652877, Final residual = 0.000426868, No Iterations 4
smoothSolver:  Solving for Uy, Initial residual = 0.0093931, Final residual = 0.000641209, No Iterations 4
smoothSolver:  Solving for Uz, Initial residual = 0.00911962, Final residual = 0.000533347, No Iterations 4
GAMG:  Solving for p, Initial residual = 0.00418738, Final residual = 0.000118578, No Iterations 2
time step continuity errors : sum local = 0.000359537, global = -8.81655e-06, cumulative = -0.000160113
smoothSolver:  Solving for epsilon, Initial residual = 0.000449355, Final residual = 2.84388e-05, No Iterations 1
smoothSolver:  Solving for k, Initial residual = 0.000866545, Final residual = 1.42493e-05, No Iterations 2
ExecutionTime = 237.25 s  ClockTime = 236 s

Time = 980

smoothSolver:  Solving for Ux, Initial residual = 0.00649528, Final residual = 0.000427576, No Iterations 4
smoothSolver:  Solving for Uy, Initial residual = 0.00937282, Final residual = 0.000642667, No Iterations 4
smoothSolver:  Solving for Uz, Initial residual = 0.00904802, Final residual = 0.000527761, No Iterations 4
GAMG:  Solving for p, Initial residual = 0.00415172, Final residual = 0.000117305, No Iterations 2
time step continuity errors : sum local = 0.000354572, global = -8.08162e-06, cumulative = -0.000168195
smoothSolver:  Solving for epsilon, Initial residual = 0.000411984, Final residual = 2.83967e-05, No Iterations 1
bounding epsilon, min: -2.08547e-06 max: 877.494 average: 0.525588
smoothSolver:  Solving for k, Initial residual = 0.000865634, Final residual = 1.42618e-05, No Iterations 2
ExecutionTime = 237.45 s  ClockTime = 236 s

Time = 981

smoothSolver:  Solving for Ux, Initial residual = 0.00646241, Final residual = 0.00042838, No Iterations 4
smoothSolver:  Solving for Uy, Initial residual = 0.00932001, Final residual = 0.000643059, No Iterations 4
smoothSolver:  Solving for Uz, Initial residual = 0.00896659, Final residual = 0.000521624, No Iterations 4
GAMG:  Solving for p, Initial residual = 0.00409013, Final residual = 0.000115954, No Iterations 2
time step continuity errors : sum local = 0.000349651, global = -9.6612e-06, cumulative = -0.000177856
smoothSolver:  Solving for epsilon, Initial residual = 0.000385718, Final residual = 2.8334e-05, No Iterations 1
bounding epsilon, min: -0.000384813 max: 880.233 average: 0.525743
smoothSolver:  Solving for k, Initial residual = 0.00086438, Final residual = 1.42723e-05, No Iterations 2
ExecutionTime = 237.66 s  ClockTime = 236 s

Time = 982

smoothSolver:  Solving for Ux, Initial residual = 0.00642994, Final residual = 0.000429504, No Iterations 4
smoothSolver:  Solving for Uy, Initial residual = 0.00924415, Final residual = 0.000641753, No Iterations 4
smoothSolver:  Solving for Uz, Initial residual = 0.00888166, Final residual = 0.000515379, No Iterations 4
GAMG:  Solving for p, Initial residual = 0.00400264, Final residual = 0.000114078, No Iterations 2
time step continuity errors : sum local = 0.000343411, global = -1.2848e-05, cumulative = -0.000190704
smoothSolver:  Solving for epsilon, Initial residual = 0.000366942, Final residual = 2.8237e-05, No Iterations 1
bounding epsilon, min: -0.000624058 max: 882.902 average: 0.525905
smoothSolver:  Solving for k, Initial residual = 0.000862622, Final residual = 1.42791e-05, No Iterations 2
ExecutionTime = 237.86 s  ClockTime = 239 s

Time = 983

smoothSolver:  Solving for Ux, Initial residual = 0.00640221, Final residual = 0.000431798, No Iterations 4
smoothSolver:  Solving for Uy, Initial residual = 0.00915076, Final residual = 0.000639199, No Iterations 4
smoothSolver:  Solving for Uz, Initial residual = 0.00879066, Final residual = 0.000509149, No Iterations 4
GAMG:  Solving for p, Initial residual = 0.00390844, Final residual = 0.000111766, No Iterations 2
time step continuity errors : sum local = 0.000335946, global = -1.68228e-05, cumulative = -0.000207527
smoothSolver:  Solving for epsilon, Initial residual = 0.000353375, Final residual = 2.81032e-05, No Iterations 1
smoothSolver:  Solving for k, Initial residual = 0.000860564, Final residual = 1.42804e-05, No Iterations 2
ExecutionTime = 238.06 s  ClockTime = 239 s

Time = 984

smoothSolver:  Solving for Ux, Initial residual = 0.00638522, Final residual = 0.000434791, No Iterations 4
smoothSolver:  Solving for Uy, Initial residual = 0.00904063, Final residual = 0.000634642, No Iterations 4
smoothSolver:  Solving for Uz, Initial residual = 0.00870402, Final residual = 0.000503196, No Iterations 4
GAMG:  Solving for p, Initial residual = 0.00384144, Final residual = 0.000109414, No Iterations 2
time step continuity errors : sum local = 0.000327506, global = -2.10282e-05, cumulative = -0.000228555
smoothSolver:  Solving for epsilon, Initial residual = 0.000343644, Final residual = 2.79572e-05, No Iterations 1
smoothSolver:  Solving for k, Initial residual = 0.000857765, Final residual = 1.42736e-05, No Iterations 2
ExecutionTime = 238.25 s  ClockTime = 239 s

Time = 985

smoothSolver:  Solving for Ux, Initial residual = 0.00638538, Final residual = 0.000438104, No Iterations 4
smoothSolver:  Solving for Uy, Initial residual = 0.00892667, Final residual = 0.000629355, No Iterations 4
smoothSolver:  Solving for Uz, Initial residual = 0.00861883, Final residual = 0.000498439, No Iterations 4
GAMG:  Solving for p, Initial residual = 0.00378119, Final residual = 0.000106954, No Iterations 2
time step continuity errors : sum local = 0.000318613, global = -2.49696e-05, cumulative = -0.000253525
smoothSolver:  Solving for epsilon, Initial residual = 0.000336513, Final residual = 2.77972e-05, No Iterations 1
bounding epsilon, min: -2.86607e-05 max: 890.331 average: 0.526414
smoothSolver:  Solving for k, Initial residual = 0.0008548, Final residual = 1.4254e-05, No Iterations 2
ExecutionTime = 238.48 s  ClockTime = 240 s

Time = 986

smoothSolver:  Solving for Ux, Initial residual = 0.00639533, Final residual = 0.000441211, No Iterations 4
smoothSolver:  Solving for Uy, Initial residual = 0.00881063, Final residual = 0.000623688, No Iterations 4
smoothSolver:  Solving for Uz, Initial residual = 0.00853291, Final residual = 0.000494245, No Iterations 4
GAMG:  Solving for p, Initial residual = 0.00371904, Final residual = 0.000104388, No Iterations 2
time step continuity errors : sum local = 0.000309412, global = -2.82135e-05, cumulative = -0.000281738
smoothSolver:  Solving for epsilon, Initial residual = 0.000331224, Final residual = 2.76266e-05, No Iterations 1
smoothSolver:  Solving for k, Initial residual = 0.000851143, Final residual = 1.42254e-05, No Iterations 2
ExecutionTime = 238.68 s  ClockTime = 240 s

Time = 987

smoothSolver:  Solving for Ux, Initial residual = 0.00641247, Final residual = 0.000444124, No Iterations 4
smoothSolver:  Solving for Uy, Initial residual = 0.00868966, Final residual = 0.000616866, No Iterations 4
smoothSolver:  Solving for Uz, Initial residual = 0.00844285, Final residual = 0.000491041, No Iterations 4
GAMG:  Solving for p, Initial residual = 0.00366969, Final residual = 0.000102345, No Iterations 2
time step continuity errors : sum local = 0.000301802, global = -3.04722e-05, cumulative = -0.00031221
smoothSolver:  Solving for epsilon, Initial residual = 0.000326942, Final residual = 2.74432e-05, No Iterations 1
bounding epsilon, min: -8.79103e-05 max: 894.678 average: 0.526765
smoothSolver:  Solving for k, Initial residual = 0.000847078, Final residual = 1.41884e-05, No Iterations 2
ExecutionTime = 238.89 s  ClockTime = 240 s

Time = 988

smoothSolver:  Solving for Ux, Initial residual = 0.00642545, Final residual = 0.000445845, No Iterations 4
smoothSolver:  Solving for Uy, Initial residual = 0.00855353, Final residual = 0.000609731, No Iterations 4
smoothSolver:  Solving for Uz, Initial residual = 0.00836016, Final residual = 0.000489214, No Iterations 4
GAMG:  Solving for p, Initial residual = 0.00362895, Final residual = 0.00010109, No Iterations 2
time step continuity errors : sum local = 0.000296625, global = -3.1646e-05, cumulative = -0.000343856
smoothSolver:  Solving for epsilon, Initial residual = 0.000323387, Final residual = 2.72573e-05, No Iterations 1
smoothSolver:  Solving for k, Initial residual = 0.000842638, Final residual = 1.41456e-05, No Iterations 2
ExecutionTime = 239.09 s  ClockTime = 240 s

Time = 989

smoothSolver:  Solving for Ux, Initial residual = 0.00643367, Final residual = 0.00044656, No Iterations 4
smoothSolver:  Solving for Uy, Initial residual = 0.00840397, Final residual = 0.000601712, No Iterations 4
smoothSolver:  Solving for Uz, Initial residual = 0.00830051, Final residual = 0.000489211, No Iterations 4
GAMG:  Solving for p, Initial residual = 0.00360333, Final residual = 0.000100314, No Iterations 2
time step continuity errors : sum local = 0.000293045, global = -3.18856e-05, cumulative = -0.000375742
smoothSolver:  Solving for epsilon, Initial residual = 0.000319788, Final residual = 2.70191e-05, No Iterations 1
bounding epsilon, min: -0.000502204 max: 898.461 average: 0.52712
smoothSolver:  Solving for k, Initial residual = 0.000837188, Final residual = 1.40921e-05, No Iterations 2
ExecutionTime = 239.29 s  ClockTime = 240 s

Time = 990

smoothSolver:  Solving for Ux, Initial residual = 0.00643881, Final residual = 0.000446508, No Iterations 4
smoothSolver:  Solving for Uy, Initial residual = 0.0082541, Final residual = 0.000593285, No Iterations 4
smoothSolver:  Solving for Uz, Initial residual = 0.00824326, Final residual = 0.000490423, No Iterations 4
GAMG:  Solving for p, Initial residual = 0.00358137, Final residual = 9.95999e-05, No Iterations 2
time step continuity errors : sum local = 0.000289824, global = -3.1222e-05, cumulative = -0.000406964
smoothSolver:  Solving for epsilon, Initial residual = 0.000315366, Final residual = 2.6643e-05, No Iterations 1
bounding epsilon, min: -2.91564e-05 max: 900.126 average: 0.527297
smoothSolver:  Solving for k, Initial residual = 0.000829674, Final residual = 1.40142e-05, No Iterations 2
ExecutionTime = 239.5 s  ClockTime = 240 s

Time = 991

smoothSolver:  Solving for Ux, Initial residual = 0.00644113, Final residual = 0.000445916, No Iterations 4
smoothSolver:  Solving for Uy, Initial residual = 0.00810156, Final residual = 0.000584237, No Iterations 4
smoothSolver:  Solving for Uz, Initial residual = 0.00819768, Final residual = 0.000492416, No Iterations 4
GAMG:  Solving for p, Initial residual = 0.00356247, Final residual = 9.88016e-05, No Iterations 2
time step continuity errors : sum local = 0.000286518, global = -2.95554e-05, cumulative = -0.000436519
smoothSolver:  Solving for epsilon, Initial residual = 0.000303656, Final residual = 2.52966e-05, No Iterations 1
bounding epsilon, min: -0.000249989 max: 901.635 average: 0.527475
smoothSolver:  Solving for k, Initial residual = 0.000806026, Final residual = 1.36612e-05, No Iterations 2
bounding k, min: -1.5432e-10 max: 2.81366 average: 0.00884847
ExecutionTime = 239.71 s  ClockTime = 240 s

Time = 992

smoothSolver:  Solving for Ux, Initial residual = 0.00645018, Final residual = 0.000446335, No Iterations 4
smoothSolver:  Solving for Uy, Initial residual = 0.00794576, Final residual = 0.000575579, No Iterations 4
smoothSolver:  Solving for Uz, Initial residual = 0.00815622, Final residual = 0.000494609, No Iterations 4
GAMG:  Solving for p, Initial residual = 0.00354142, Final residual = 9.82827e-05, No Iterations 2
time step continuity errors : sum local = 0.000284186, global = -2.67759e-05, cumulative = -0.000463295
smoothSolver:  Solving for epsilon, Initial residual = 0.000312874, Final residual = 2.67608e-05, No Iterations 1
bounding epsilon, min: -0.146689 max: 902.987 average: 0.527654
smoothSolver:  Solving for k, Initial residual = 0.000827367, Final residual = 1.40474e-05, No Iterations 2
ExecutionTime = 239.92 s  ClockTime = 241 s

Time = 993

smoothSolver:  Solving for Ux, Initial residual = 0.00646735, Final residual = 0.000448363, No Iterations 4
smoothSolver:  Solving for Uy, Initial residual = 0.00779122, Final residual = 0.000567147, No Iterations 4
smoothSolver:  Solving for Uz, Initial residual = 0.00812265, Final residual = 0.000496781, No Iterations 4
GAMG:  Solving for p, Initial residual = 0.0035059, Final residual = 9.7956e-05, No Iterations 2
time step continuity errors : sum local = 0.000282557, global = -2.29748e-05, cumulative = -0.00048627
smoothSolver:  Solving for epsilon, Initial residual = 0.000312734, Final residual = 2.64034e-05, No Iterations 1
bounding epsilon, min: -0.00106181 max: 904.11 average: 0.527836
smoothSolver:  Solving for k, Initial residual = 0.000820474, Final residual = 1.40022e-05, No Iterations 2
ExecutionTime = 240.12 s  ClockTime = 241 s

Time = 994

smoothSolver:  Solving for Ux, Initial residual = 0.00648707, Final residual = 0.00045159, No Iterations 4
smoothSolver:  Solving for Uy, Initial residual = 0.00764139, Final residual = 0.000558661, No Iterations 4
smoothSolver:  Solving for Uz, Initial residual = 0.00809685, Final residual = 0.000498449, No Iterations 4
GAMG:  Solving for p, Initial residual = 0.00346434, Final residual = 9.75257e-05, No Iterations 2
time step continuity errors : sum local = 0.000280765, global = -1.83866e-05, cumulative = -0.000504657
smoothSolver:  Solving for epsilon, Initial residual = 0.000307017, Final residual = 2.6139e-05, No Iterations 1
bounding epsilon, min: -0.0010105 max: 905.087 average: 0.528013
smoothSolver:  Solving for k, Initial residual = 0.000814948, Final residual = 1.39604e-05, No Iterations 2
ExecutionTime = 240.33 s  ClockTime = 241 s

Time = 995

smoothSolver:  Solving for Ux, Initial residual = 0.00651533, Final residual = 0.000456863, No Iterations 4
smoothSolver:  Solving for Uy, Initial residual = 0.00748977, Final residual = 0.000550378, No Iterations 4
smoothSolver:  Solving for Uz, Initial residual = 0.0080698, Final residual = 0.000499871, No Iterations 4
GAMG:  Solving for p, Initial residual = 0.00343385, Final residual = 9.70443e-05, No Iterations 2
time step continuity errors : sum local = 0.00027896, global = -1.36097e-05, cumulative = -0.000518266
smoothSolver:  Solving for epsilon, Initial residual = 0.000302153, Final residual = 2.58911e-05, No Iterations 1
smoothSolver:  Solving for k, Initial residual = 0.000809715, Final residual = 1.39192e-05, No Iterations 2
ExecutionTime = 240.53 s  ClockTime = 241 s

Time = 996

smoothSolver:  Solving for Ux, Initial residual = 0.006558, Final residual = 0.000462592, No Iterations 4
smoothSolver:  Solving for Uy, Initial residual = 0.00734866, Final residual = 0.000542563, No Iterations 4
smoothSolver:  Solving for Uz, Initial residual = 0.00804373, Final residual = 0.000501699, No Iterations 4
GAMG:  Solving for p, Initial residual = 0.00342659, Final residual = 9.66932e-05, No Iterations 2
time step continuity errors : sum local = 0.00027769, global = -9.36246e-06, cumulative = -0.000527629
smoothSolver:  Solving for epsilon, Initial residual = 0.000298008, Final residual = 2.56669e-05, No Iterations 1
bounding epsilon, min: -0.000342919 max: 906.728 average: 0.528363
smoothSolver:  Solving for k, Initial residual = 0.000804872, Final residual = 1.38788e-05, No Iterations 2
ExecutionTime = 240.77 s  ClockTime = 241 s

Time = 997

smoothSolver:  Solving for Ux, Initial residual = 0.00660909, Final residual = 0.000468869, No Iterations 4
smoothSolver:  Solving for Uy, Initial residual = 0.00722659, Final residual = 0.00053576, No Iterations 4
smoothSolver:  Solving for Uz, Initial residual = 0.00802707, Final residual = 0.000503552, No Iterations 4
GAMG:  Solving for p, Initial residual = 0.00343271, Final residual = 9.68849e-05, No Iterations 2
time step continuity errors : sum local = 0.000278121, global = -5.89712e-06, cumulative = -0.000533526
smoothSolver:  Solving for epsilon, Initial residual = 0.000294323, Final residual = 2.54842e-05, No Iterations 1
bounding epsilon, min: -0.000126838 max: 907.368 average: 0.528536
smoothSolver:  Solving for k, Initial residual = 0.000800413, Final residual = 1.38458e-05, No Iterations 2
ExecutionTime = 240.98 s  ClockTime = 241 s

Time = 998

smoothSolver:  Solving for Ux, Initial residual = 0.00666002, Final residual = 0.00047502, No Iterations 4
smoothSolver:  Solving for Uy, Initial residual = 0.00712522, Final residual = 0.000529533, No Iterations 4
smoothSolver:  Solving for Uz, Initial residual = 0.00801894, Final residual = 0.000505348, No Iterations 4
GAMG:  Solving for p, Initial residual = 0.00344183, Final residual = 9.74234e-05, No Iterations 2
time step continuity errors : sum local = 0.000279669, global = -3.23983e-06, cumulative = -0.000536766
smoothSolver:  Solving for epsilon, Initial residual = 0.000291447, Final residual = 2.53287e-05, No Iterations 1
bounding epsilon, min: -2.23694e-07 max: 907.889 average: 0.528707
smoothSolver:  Solving for k, Initial residual = 0.000796473, Final residual = 1.38218e-05, No Iterations 2
ExecutionTime = 241.19 s  ClockTime = 241 s

Time = 999

smoothSolver:  Solving for Ux, Initial residual = 0.00670964, Final residual = 0.00048083, No Iterations 4
smoothSolver:  Solving for Uy, Initial residual = 0.00704141, Final residual = 0.000523444, No Iterations 4
smoothSolver:  Solving for Uz, Initial residual = 0.00801139, Final residual = 0.000507011, No Iterations 4
GAMG:  Solving for p, Initial residual = 0.00345051, Final residual = 9.80158e-05, No Iterations 2
time step continuity errors : sum local = 0.00028149, global = -1.21419e-06, cumulative = -0.00053798
smoothSolver:  Solving for epsilon, Initial residual = 0.000288779, Final residual = 2.5214e-05, No Iterations 1
smoothSolver:  Solving for k, Initial residual = 0.00079304, Final residual = 1.38031e-05, No Iterations 2
ExecutionTime = 241.39 s  ClockTime = 241 s

Time = 1000

smoothSolver:  Solving for Ux, Initial residual = 0.00676683, Final residual = 0.000486276, No Iterations 4
smoothSolver:  Solving for Uy, Initial residual = 0.00696762, Final residual = 0.000517564, No Iterations 4
smoothSolver:  Solving for Uz, Initial residual = 0.00800277, Final residual = 0.000508667, No Iterations 4
GAMG:  Solving for p, Initial residual = 0.00346487, Final residual = 9.84918e-05, No Iterations 2
time step continuity errors : sum local = 0.000283096, global = 4.97253e-07, cumulative = -0.000537483
smoothSolver:  Solving for epsilon, Initial residual = 0.000286577, Final residual = 2.513e-05, No Iterations 1
bounding epsilon, min: -4.31912e-05 max: 908.632 average: 0.529042
smoothSolver:  Solving for k, Initial residual = 0.000790143, Final residual = 1.37851e-05, No Iterations 2
ExecutionTime = 241.85 s  ClockTime = 241 s

End

